
 OpenBabel11272015233D

 12  6  0  0  0  0  0  0  0  0999 V2000
  733.5317  749.6309  737.7716 F   0  0  0  0  0  0  0  0  0  0  0  0
  733.1309  748.6591  738.0459 H   0  0  0  0  0  0  0  0  0  0  0  0
  731.4789  749.8510  740.7961 F   0  0  0  0  0  0  0  0  0  0  0  0
  732.0168  749.6842  739.9682 H   0  0  0  0  0  0  0  0  0  0  0  0
  733.4099  746.8028  740.0293 F   0  0  0  0  0  0  0  0  0  0  0  0
  733.0474  746.7870  739.0965 H   0  0  0  0  0  0  0  0  0  0  0  0
  734.9408  752.9328  737.0293 F   0  0  0  0  0  0  0  0  0  0  0  0
  734.5692  752.0622  737.3468 H   0  0  0  0  0  0  0  0  0  0  0  0
  731.5417  746.8016  736.8840 F   0  0  0  0  0  0  0  0  0  0  0  0
  731.7320  747.6190  737.5747 H   0  0  0  0  0  0  0  0  0  0  0  0
  730.5488  748.8263  739.7181 F   0  0  0  0  0  0  0  0  0  0  0  0
  731.4801  748.9859  739.3706 H   0  0  0  0  0  0  0  0  0  0  0  0
  1  2  1  0  0  0  0
  3  4  1  0  0  0  0
  5  6  1  0  0  0  0
  7  8  1  0  0  0  0
  9 10  1  0  0  0  0
 11 12  1  0  0  0  0
M  END
