
 OpenBabel11272015123D

  8  4  0  0  0  0  0  0  0  0999 V2000
   59.4531   54.4710   58.9423 F   0  0  0  0  0  0  0  0  0  0  0  0
   60.1977   54.9774   58.5027 H   0  0  0  0  0  0  0  0  0  0  0  0
   61.0279   51.1603   58.9700 F   0  0  0  0  0  0  0  0  0  0  0  0
   60.5094   52.0120   59.0553 H   0  0  0  0  0  0  0  0  0  0  0  0
   60.4719   53.6818   55.6983 F   0  0  0  0  0  0  0  0  0  0  0  0
   59.6223   53.7569   55.1806 H   0  0  0  0  0  0  0  0  0  0  0  0
   62.5578   55.9431   57.6815 F   0  0  0  0  0  0  0  0  0  0  0  0
   61.8465   55.4012   57.2238 H   0  0  0  0  0  0  0  0  0  0  0  0
  1  2  1  0  0  0  0
  3  4  1  0  0  0  0
  5  6  1  0  0  0  0
  7  8  1  0  0  0  0
M  END
