
 OpenBabel11272015133D

 10  5  0  0  0  0  0  0  0  0999 V2000
  231.9371  224.5245  233.1873 F   0  0  0  0  0  0  0  0  0  0  0  0
  231.6480  223.9576  233.9735 H   0  0  0  0  0  0  0  0  0  0  0  0
  231.8798  221.7500  235.4766 F   0  0  0  0  0  0  0  0  0  0  0  0
  232.1484  222.6285  235.0759 H   0  0  0  0  0  0  0  0  0  0  0  0
  228.3060  222.4123  235.0142 F   0  0  0  0  0  0  0  0  0  0  0  0
  229.2664  222.3099  235.2806 H   0  0  0  0  0  0  0  0  0  0  0  0
  234.0243  220.2381  234.5301 F   0  0  0  0  0  0  0  0  0  0  0  0
  233.4852  220.8711  235.0881 H   0  0  0  0  0  0  0  0  0  0  0  0
  231.7480  222.5402  236.2515 F   0  0  0  0  0  0  0  0  0  0  0  0
  231.2918  223.1854  235.6420 H   0  0  0  0  0  0  0  0  0  0  0  0
  1  2  1  0  0  0  0
  3  4  1  0  0  0  0
  5  6  1  0  0  0  0
  7  8  1  0  0  0  0
  9 10  1  0  0  0  0
M  END
