
 OpenBabel11272015203D

 12  6  0  0  0  0  0  0  0  0999 V2000
  544.8352  550.1700  546.1505 F   0  0  0  0  0  0  0  0  0  0  0  0
  544.0166  549.5923  546.1604 H   0  0  0  0  0  0  0  0  0  0  0  0
  543.4193  547.4212  544.2681 F   0  0  0  0  0  0  0  0  0  0  0  0
  543.8985  547.7988  545.1727 H   0  0  0  0  0  0  0  0  0  0  0  0
  543.0493  549.7980  546.2601 F   0  0  0  0  0  0  0  0  0  0  0  0
  542.3979  549.1904  546.7133 H   0  0  0  0  0  0  0  0  0  0  0  0
  542.4774  549.3974  548.7870 F   0  0  0  0  0  0  0  0  0  0  0  0
  543.2783  549.0820  548.1163 H   0  0  0  0  0  0  0  0  0  0  0  0
  544.7273  546.8282  547.5896 F   0  0  0  0  0  0  0  0  0  0  0  0
  544.4755  547.7227  547.1817 H   0  0  0  0  0  0  0  0  0  0  0  0
  544.5591  547.8595  548.9715 F   0  0  0  0  0  0  0  0  0  0  0  0
  544.3762  548.4883  548.1879 H   0  0  0  0  0  0  0  0  0  0  0  0
  1  2  1  0  0  0  0
  3  4  1  0  0  0  0
  5  6  1  0  0  0  0
  7  8  1  0  0  0  0
  9 10  1  0  0  0  0
 11 12  1  0  0  0  0
M  END
