
 OpenBabel11272015153D

 12  6  0  0  0  0  0  0  0  0999 V2000
  261.3801  260.0570  267.2043 F   0  0  0  0  0  0  0  0  0  0  0  0
  261.1570  259.2911  266.5524 H   0  0  0  0  0  0  0  0  0  0  0  0
  262.0647  261.0420  263.7946 F   0  0  0  0  0  0  0  0  0  0  0  0
  261.9285  260.2627  264.5273 H   0  0  0  0  0  0  0  0  0  0  0  0
  260.8756  258.4354  266.1216 F   0  0  0  0  0  0  0  0  0  0  0  0
  261.1088  258.3230  265.1533 H   0  0  0  0  0  0  0  0  0  0  0  0
  259.6568  257.3647  265.4315 F   0  0  0  0  0  0  0  0  0  0  0  0
  259.3094  258.2007  265.8597 H   0  0  0  0  0  0  0  0  0  0  0  0
  261.7449  257.5341  264.6065 F   0  0  0  0  0  0  0  0  0  0  0  0
  262.2338  257.5127  265.4785 H   0  0  0  0  0  0  0  0  0  0  0  0
  263.7650  259.9252  264.4409 F   0  0  0  0  0  0  0  0  0  0  0  0
  262.9855  259.7296  265.0790 H   0  0  0  0  0  0  0  0  0  0  0  0
  1  2  1  0  0  0  0
  3  4  1  0  0  0  0
  5  6  1  0  0  0  0
  7  8  1  0  0  0  0
  9 10  1  0  0  0  0
 11 12  1  0  0  0  0
M  END
