
 OpenBabel11272015193D

 12  6  0  0  0  0  0  0  0  0999 V2000
  492.1859  491.3834  493.6632 F   0  0  0  0  0  0  0  0  0  0  0  0
  492.2865  492.4086  494.0286 H   0  0  0  0  0  0  0  0  0  0  0  0
  489.3310  491.3922  495.9536 F   0  0  0  0  0  0  0  0  0  0  0  0
  489.9862  491.5401  495.1874 H   0  0  0  0  0  0  0  0  0  0  0  0
  491.0783  492.5085  492.9381 F   0  0  0  0  0  0  0  0  0  0  0  0
  491.8720  491.9176  492.7977 H   0  0  0  0  0  0  0  0  0  0  0  0
  492.8172  494.8839  493.0034 F   0  0  0  0  0  0  0  0  0  0  0  0
  492.7612  494.5994  493.9550 H   0  0  0  0  0  0  0  0  0  0  0  0
  492.1173  493.7391  496.4085 F   0  0  0  0  0  0  0  0  0  0  0  0
  491.4009  493.0836  496.1530 H   0  0  0  0  0  0  0  0  0  0  0  0
  493.6616  493.5984  496.1857 F   0  0  0  0  0  0  0  0  0  0  0  0
  493.2028  493.0999  495.4518 H   0  0  0  0  0  0  0  0  0  0  0  0
  1  2  1  0  0  0  0
  3  4  1  0  0  0  0
  5  6  1  0  0  0  0
  7  8  1  0  0  0  0
  9 10  1  0  0  0  0
 11 12  1  0  0  0  0
M  END
