
 OpenBabel11272015173D

 12  6  0  0  0  0  0  0  0  0999 V2000
  395.5456  394.1879  399.4313 F   0  0  0  0  0  0  0  0  0  0  0  0
  395.8521  393.4186  398.7210 H   0  0  0  0  0  0  0  0  0  0  0  0
  394.3791  392.0129  396.7132 F   0  0  0  0  0  0  0  0  0  0  0  0
  394.7705  392.5032  397.4978 H   0  0  0  0  0  0  0  0  0  0  0  0
  395.6254  393.2996  399.9067 F   0  0  0  0  0  0  0  0  0  0  0  0
  396.5673  392.9810  400.0101 H   0  0  0  0  0  0  0  0  0  0  0  0
  395.5476  392.8714  396.0614 F   0  0  0  0  0  0  0  0  0  0  0  0
  396.5073  393.1467  395.9779 H   0  0  0  0  0  0  0  0  0  0  0  0
  397.2900  391.0962  398.7344 F   0  0  0  0  0  0  0  0  0  0  0  0
  396.6228  391.4508  398.0666 H   0  0  0  0  0  0  0  0  0  0  0  0
  396.4465  392.1455  396.5283 F   0  0  0  0  0  0  0  0  0  0  0  0
  396.1635  392.5772  397.3838 H   0  0  0  0  0  0  0  0  0  0  0  0
  1  2  1  0  0  0  0
  3  4  1  0  0  0  0
  5  6  1  0  0  0  0
  7  8  1  0  0  0  0
  9 10  1  0  0  0  0
 11 12  1  0  0  0  0
M  END
