
 OpenBabel11272015203D

 12  6  0  0  0  0  0  0  0  0999 V2000
  582.0788  587.0758  582.0835 F   0  0  0  0  0  0  0  0  0  0  0  0
  581.1773  587.0508  582.5164 H   0  0  0  0  0  0  0  0  0  0  0  0
  578.8819  585.8889  583.2480 F   0  0  0  0  0  0  0  0  0  0  0  0
  579.8580  585.9110  582.9921 H   0  0  0  0  0  0  0  0  0  0  0  0
  582.4109  585.2015  583.4198 F   0  0  0  0  0  0  0  0  0  0  0  0
  581.5492  585.7280  583.5383 H   0  0  0  0  0  0  0  0  0  0  0  0
  579.8471  587.7729  583.8716 F   0  0  0  0  0  0  0  0  0  0  0  0
  580.3980  587.3455  584.5894 H   0  0  0  0  0  0  0  0  0  0  0  0
  582.3991  587.1591  586.3594 F   0  0  0  0  0  0  0  0  0  0  0  0
  581.8455  587.5699  585.6342 H   0  0  0  0  0  0  0  0  0  0  0  0
  582.5095  586.2998  582.9886 F   0  0  0  0  0  0  0  0  0  0  0  0
  581.8101  586.8491  583.4483 H   0  0  0  0  0  0  0  0  0  0  0  0
  1  2  1  0  0  0  0
  3  4  1  0  0  0  0
  5  6  1  0  0  0  0
  7  8  1  0  0  0  0
  9 10  1  0  0  0  0
 11 12  1  0  0  0  0
M  END
