
 OpenBabel11272015133D

 10  5  0  0  0  0  0  0  0  0999 V2000
  177.0978  165.4890  179.6833 F   0  0  0  0  0  0  0  0  0  0  0  0
  176.8876  166.4677  179.5339 H   0  0  0  0  0  0  0  0  0  0  0  0
  175.1753  168.5305  179.6267 F   0  0  0  0  0  0  0  0  0  0  0  0
  175.5654  167.6520  179.2903 H   0  0  0  0  0  0  0  0  0  0  0  0
  178.7786  168.5716  180.2872 F   0  0  0  0  0  0  0  0  0  0  0  0
  177.8267  168.5521  179.9621 H   0  0  0  0  0  0  0  0  0  0  0  0
  176.2063  165.6487  177.6238 F   0  0  0  0  0  0  0  0  0  0  0  0
  176.8590  165.7018  176.8699 H   0  0  0  0  0  0  0  0  0  0  0  0
  177.0438  169.0271  178.7547 F   0  0  0  0  0  0  0  0  0  0  0  0
  176.6792  168.1203  178.5316 H   0  0  0  0  0  0  0  0  0  0  0  0
  1  2  1  0  0  0  0
  3  4  1  0  0  0  0
  5  6  1  0  0  0  0
  7  8  1  0  0  0  0
  9 10  1  0  0  0  0
M  END
