
 OpenBabel11272015213D

 12  6  0  0  0  0  0  0  0  0999 V2000
  599.5342  605.4564  602.0614 F   0  0  0  0  0  0  0  0  0  0  0  0
  599.3138  605.5587  601.0916 H   0  0  0  0  0  0  0  0  0  0  0  0
  596.1386  604.3071  601.5831 F   0  0  0  0  0  0  0  0  0  0  0  0
  596.8581  604.9154  602.1337 H   0  0  0  0  0  0  0  0  0  0  0  0
  599.8518  607.0068  602.1613 F   0  0  0  0  0  0  0  0  0  0  0  0
  599.2217  607.5712  602.6967 H   0  0  0  0  0  0  0  0  0  0  0  0
  602.2004  607.6455  600.9750 F   0  0  0  0  0  0  0  0  0  0  0  0
  601.7384  606.6573  600.9833 H   0  0  0  0  0  0  0  0  0  0  0  0
  596.8598  606.6545  604.2397 F   0  0  0  0  0  0  0  0  0  0  0  0
  597.6794  606.5454  603.6599 H   0  0  0  0  0  0  0  0  0  0  0  0
  602.2268  604.1777  599.9471 F   0  0  0  0  0  0  0  0  0  0  0  0
  601.4937  604.4234  600.5833 H   0  0  0  0  0  0  0  0  0  0  0  0
  1  2  1  0  0  0  0
  3  4  1  0  0  0  0
  5  6  1  0  0  0  0
  7  8  1  0  0  0  0
  9 10  1  0  0  0  0
 11 12  1  0  0  0  0
M  END
