
 OpenBabel11272015143D

 12  6  0  0  0  0  0  0  0  0999 V2000
  225.0890  220.1817  228.2024 F   0  0  0  0  0  0  0  0  0  0  0  0
  224.3721  220.4099  228.9041 H   0  0  0  0  0  0  0  0  0  0  0  0
  227.3013  222.8413  229.4388 F   0  0  0  0  0  0  0  0  0  0  0  0
  226.6163  222.2019  229.0746 H   0  0  0  0  0  0  0  0  0  0  0  0
  224.4596  221.0745  227.9521 F   0  0  0  0  0  0  0  0  0  0  0  0
  224.1656  220.1802  227.6130 H   0  0  0  0  0  0  0  0  0  0  0  0
  222.7186  219.9626  230.9734 F   0  0  0  0  0  0  0  0  0  0  0  0
  223.2426  220.1092  230.1328 H   0  0  0  0  0  0  0  0  0  0  0  0
  222.6291  221.9679  230.2267 F   0  0  0  0  0  0  0  0  0  0  0  0
  222.4641  222.8605  229.8033 H   0  0  0  0  0  0  0  0  0  0  0  0
  227.0459  220.6609  231.2751 F   0  0  0  0  0  0  0  0  0  0  0  0
  226.5130  220.5719  230.4347 H   0  0  0  0  0  0  0  0  0  0  0  0
  1  2  1  0  0  0  0
  3  4  1  0  0  0  0
  5  6  1  0  0  0  0
  7  8  1  0  0  0  0
  9 10  1  0  0  0  0
 11 12  1  0  0  0  0
M  END
