
 OpenBabel11272015123D

  8  4  0  0  0  0  0  0  0  0999 V2000
   57.8369   53.3351   56.6654 F   0  0  0  0  0  0  0  0  0  0  0  0
   57.5770   53.2519   55.7039 H   0  0  0  0  0  0  0  0  0  0  0  0
   58.2146   50.0296   55.2410 F   0  0  0  0  0  0  0  0  0  0  0  0
   57.8751   51.0649   55.1519 H   0  0  0  0  0  0  0  0  0  0  0  0
   56.5899   52.6148   53.3048 F   0  0  0  0  0  0  0  0  0  0  0  0
   57.1803   51.8101   53.2673 H   0  0  0  0  0  0  0  0  0  0  0  0
   58.5181   53.5603   55.8883 F   0  0  0  0  0  0  0  0  0  0  0  0
   58.3204   52.5852   56.0023 H   0  0  0  0  0  0  0  0  0  0  0  0
  1  2  1  0  0  0  0
  3  4  1  0  0  0  0
  5  6  1  0  0  0  0
  7  8  1  0  0  0  0
M  END
