
 OpenBabel11272015123D

  6  3  0  0  0  0  0  0  0  0999 V2000
   16.1748   15.4109   18.2302 F   0  0  0  0  0  0  0  0  0  0  0  0
   16.9210   15.3467   18.8979 H   0  0  0  0  0  0  0  0  0  0  0  0
   18.7003   14.1457   20.4720 F   0  0  0  0  0  0  0  0  0  0  0  0
   18.0886   14.1996   19.6660 H   0  0  0  0  0  0  0  0  0  0  0  0
   16.9344   13.7109   17.2962 F   0  0  0  0  0  0  0  0  0  0  0  0
   17.9074   13.4944   17.3736 H   0  0  0  0  0  0  0  0  0  0  0  0
  1  2  1  0  0  0  0
  3  4  1  0  0  0  0
  5  6  1  0  0  0  0
M  END
