
 OpenBabel11272015193D

 12  6  0  0  0  0  0  0  0  0999 V2000
  532.2825  536.8879  532.7364 F   0  0  0  0  0  0  0  0  0  0  0  0
  531.6846  535.9862  532.5946 H   0  0  0  0  0  0  0  0  0  0  0  0
  529.0793  536.4614  531.0243 F   0  0  0  0  0  0  0  0  0  0  0  0
  529.9157  536.3241  531.6005 H   0  0  0  0  0  0  0  0  0  0  0  0
  531.6934  535.0602  533.1630 F   0  0  0  0  0  0  0  0  0  0  0  0
  532.6202  534.9245  533.5164 H   0  0  0  0  0  0  0  0  0  0  0  0
  531.2441  534.1275  530.6428 F   0  0  0  0  0  0  0  0  0  0  0  0
  530.7471  534.2437  531.5028 H   0  0  0  0  0  0  0  0  0  0  0  0
  529.8833  534.5059  534.0192 F   0  0  0  0  0  0  0  0  0  0  0  0
  529.5683  535.0943  533.2695 H   0  0  0  0  0  0  0  0  0  0  0  0
  531.0316  537.0360  536.1681 F   0  0  0  0  0  0  0  0  0  0  0  0
  531.3186  536.7224  535.2356 H   0  0  0  0  0  0  0  0  0  0  0  0
  1  2  1  0  0  0  0
  3  4  1  0  0  0  0
  5  6  1  0  0  0  0
  7  8  1  0  0  0  0
  9 10  1  0  0  0  0
 11 12  1  0  0  0  0
M  END
