
 OpenBabel11272015213D

 12  6  0  0  0  0  0  0  0  0999 V2000
  611.9393  618.1017  613.1333 F   0  0  0  0  0  0  0  0  0  0  0  0
  611.8201  618.9761  613.6455 H   0  0  0  0  0  0  0  0  0  0  0  0
  611.9444  621.6638  613.6426 F   0  0  0  0  0  0  0  0  0  0  0  0
  612.2873  620.7032  613.7355 H   0  0  0  0  0  0  0  0  0  0  0  0
  610.7428  621.1428  614.7955 F   0  0  0  0  0  0  0  0  0  0  0  0
  611.5463  620.5440  614.7741 H   0  0  0  0  0  0  0  0  0  0  0  0
  612.8240  620.7928  615.3521 F   0  0  0  0  0  0  0  0  0  0  0  0
  612.5025  619.8841  615.0485 H   0  0  0  0  0  0  0  0  0  0  0  0
  613.3228  618.5457  614.9487 F   0  0  0  0  0  0  0  0  0  0  0  0
  612.7324  618.4465  615.7399 H   0  0  0  0  0  0  0  0  0  0  0  0
  610.9132  617.8953  614.1986 F   0  0  0  0  0  0  0  0  0  0  0  0
  611.4428  617.1299  613.8378 H   0  0  0  0  0  0  0  0  0  0  0  0
  1  2  1  0  0  0  0
  3  4  1  0  0  0  0
  5  6  1  0  0  0  0
  7  8  1  0  0  0  0
  9 10  1  0  0  0  0
 11 12  1  0  0  0  0
M  END
