
 OpenBabel11272015123D

 10  5  0  0  0  0  0  0  0  0999 V2000
  117.6310  111.8393  118.7163 F   0  0  0  0  0  0  0  0  0  0  0  0
  118.3331  111.0472  118.7849 H   0  0  0  0  0  0  0  0  0  0  0  0
  121.0625  110.8745  118.7871 F   0  0  0  0  0  0  0  0  0  0  0  0
  120.0486  110.5684  118.8722 H   0  0  0  0  0  0  0  0  0  0  0  0
  117.7690  110.2302  120.2402 F   0  0  0  0  0  0  0  0  0  0  0  0
  117.0686  110.5300  120.8836 H   0  0  0  0  0  0  0  0  0  0  0  0
  117.9705  109.2230  116.7248 F   0  0  0  0  0  0  0  0  0  0  0  0
  117.7573  109.4096  117.6892 H   0  0  0  0  0  0  0  0  0  0  0  0
  118.4965  108.3517  119.1347 F   0  0  0  0  0  0  0  0  0  0  0  0
  119.3104  107.7741  119.2089 H   0  0  0  0  0  0  0  0  0  0  0  0
  1  2  1  0  0  0  0
  3  4  1  0  0  0  0
  5  6  1  0  0  0  0
  7  8  1  0  0  0  0
  9 10  1  0  0  0  0
M  END
