
 OpenBabel11272015153D

 12  6  0  0  0  0  0  0  0  0999 V2000
  293.8176  292.2257  296.4050 F   0  0  0  0  0  0  0  0  0  0  0  0
  293.0205  292.1711  297.0343 H   0  0  0  0  0  0  0  0  0  0  0  0
  293.8956  289.8350  299.1745 F   0  0  0  0  0  0  0  0  0  0  0  0
  293.8171  290.3007  298.2728 H   0  0  0  0  0  0  0  0  0  0  0  0
  293.2147  290.7402  295.6918 F   0  0  0  0  0  0  0  0  0  0  0  0
  292.3960  290.9512  296.2296 H   0  0  0  0  0  0  0  0  0  0  0  0
  290.5398  291.7745  297.9778 F   0  0  0  0  0  0  0  0  0  0  0  0
  290.2761  291.8353  297.0115 H   0  0  0  0  0  0  0  0  0  0  0  0
  291.5498  291.7959  299.2463 F   0  0  0  0  0  0  0  0  0  0  0  0
  292.0786  291.6197  300.0847 H   0  0  0  0  0  0  0  0  0  0  0  0
  295.5586  289.0064  296.4079 F   0  0  0  0  0  0  0  0  0  0  0  0
  295.1309  289.8941  296.2091 H   0  0  0  0  0  0  0  0  0  0  0  0
  1  2  1  0  0  0  0
  3  4  1  0  0  0  0
  5  6  1  0  0  0  0
  7  8  1  0  0  0  0
  9 10  1  0  0  0  0
 11 12  1  0  0  0  0
M  END
