
 OpenBabel11272015143D

 12  6  0  0  0  0  0  0  0  0999 V2000
  222.8470  215.0735  224.4752 F   0  0  0  0  0  0  0  0  0  0  0  0
  221.9557  215.4209  224.8120 H   0  0  0  0  0  0  0  0  0  0  0  0
  220.8367  217.9561  223.6216 F   0  0  0  0  0  0  0  0  0  0  0  0
  220.9164  216.8832  223.7899 H   0  0  0  0  0  0  0  0  0  0  0  0
  221.9557  214.4577  223.4204 F   0  0  0  0  0  0  0  0  0  0  0  0
  221.4979  215.2927  223.7285 H   0  0  0  0  0  0  0  0  0  0  0  0
  219.3932  215.5495  225.5777 F   0  0  0  0  0  0  0  0  0  0  0  0
  219.9780  215.0923  226.2533 H   0  0  0  0  0  0  0  0  0  0  0  0
  220.0630  216.9899  225.8798 F   0  0  0  0  0  0  0  0  0  0  0  0
  219.7123  217.6529  225.2133 H   0  0  0  0  0  0  0  0  0  0  0  0
  219.2774  214.6965  223.7708 F   0  0  0  0  0  0  0  0  0  0  0  0
  220.2445  214.7588  224.0236 H   0  0  0  0  0  0  0  0  0  0  0  0
  1  2  1  0  0  0  0
  3  4  1  0  0  0  0
  5  6  1  0  0  0  0
  7  8  1  0  0  0  0
  9 10  1  0  0  0  0
 11 12  1  0  0  0  0
M  END
