
 OpenBabel11272015133D

 10  5  0  0  0  0  0  0  0  0999 V2000
  160.0123  150.5961  164.9930 F   0  0  0  0  0  0  0  0  0  0  0  0
  160.7523  151.0361  164.4715 H   0  0  0  0  0  0  0  0  0  0  0  0
  163.2891  151.6833  163.9058 F   0  0  0  0  0  0  0  0  0  0  0  0
  162.5478  151.1984  164.3701 H   0  0  0  0  0  0  0  0  0  0  0  0
  160.3484  152.9808  165.6517 F   0  0  0  0  0  0  0  0  0  0  0  0
  161.0377  152.6897  164.9558 H   0  0  0  0  0  0  0  0  0  0  0  0
  161.0151  153.7648  162.1442 F   0  0  0  0  0  0  0  0  0  0  0  0
  160.9394  153.3605  163.0638 H   0  0  0  0  0  0  0  0  0  0  0  0
  162.1897  152.2627  162.5714 F   0  0  0  0  0  0  0  0  0  0  0  0
  161.7839  152.8419  161.8638 H   0  0  0  0  0  0  0  0  0  0  0  0
  1  2  1  0  0  0  0
  3  4  1  0  0  0  0
  5  6  1  0  0  0  0
  7  8  1  0  0  0  0
  9 10  1  0  0  0  0
M  END
