
 OpenBabel11272015203D

 12  6  0  0  0  0  0  0  0  0999 V2000
  562.2493  568.9597  564.0941 F   0  0  0  0  0  0  0  0  0  0  0  0
  561.4524  569.4998  564.3689 H   0  0  0  0  0  0  0  0  0  0  0  0
  563.9109  568.1053  567.1944 F   0  0  0  0  0  0  0  0  0  0  0  0
  562.9888  568.2451  566.6245 H   0  0  0  0  0  0  0  0  0  0  0  0
  561.8650  570.4712  564.7852 F   0  0  0  0  0  0  0  0  0  0  0  0
  561.4924  569.9232  565.5403 H   0  0  0  0  0  0  0  0  0  0  0  0
  559.9302  566.1884  563.9525 F   0  0  0  0  0  0  0  0  0  0  0  0
  560.3973  566.9959  564.5188 H   0  0  0  0  0  0  0  0  0  0  0  0
  560.2957  568.0472  567.0339 F   0  0  0  0  0  0  0  0  0  0  0  0
  560.6984  568.1786  566.1301 H   0  0  0  0  0  0  0  0  0  0  0  0
  565.1000  568.4612  566.3459 F   0  0  0  0  0  0  0  0  0  0  0  0
  564.2803  568.6624  565.8082 H   0  0  0  0  0  0  0  0  0  0  0  0
  1  2  1  0  0  0  0
  3  4  1  0  0  0  0
  5  6  1  0  0  0  0
  7  8  1  0  0  0  0
  9 10  1  0  0  0  0
 11 12  1  0  0  0  0
M  END
