
 OpenBabel11272015153D

 12  6  0  0  0  0  0  0  0  0999 V2000
  301.5548  299.2539  305.7638 F   0  0  0  0  0  0  0  0  0  0  0  0
  300.5565  299.3897  305.6401 H   0  0  0  0  0  0  0  0  0  0  0  0
  301.0588  295.6559  305.2736 F   0  0  0  0  0  0  0  0  0  0  0  0
  301.2242  296.6512  305.2293 H   0  0  0  0  0  0  0  0  0  0  0  0
  301.6972  299.1251  304.3204 F   0  0  0  0  0  0  0  0  0  0  0  0
  300.7648  299.1362  304.6927 H   0  0  0  0  0  0  0  0  0  0  0  0
  298.1251  299.5473  304.5201 F   0  0  0  0  0  0  0  0  0  0  0  0
  299.0285  299.2090  304.2554 H   0  0  0  0  0  0  0  0  0  0  0  0
  297.8938  299.4058  305.5064 F   0  0  0  0  0  0  0  0  0  0  0  0
  297.0104  299.2662  305.9536 H   0  0  0  0  0  0  0  0  0  0  0  0
  303.3422  296.6686  303.8665 F   0  0  0  0  0  0  0  0  0  0  0  0
  302.8469  297.3252  304.4308 H   0  0  0  0  0  0  0  0  0  0  0  0
  1  2  1  0  0  0  0
  3  4  1  0  0  0  0
  5  6  1  0  0  0  0
  7  8  1  0  0  0  0
  9 10  1  0  0  0  0
 11 12  1  0  0  0  0
M  END
