
 OpenBabel11272015203D

 12  6  0  0  0  0  0  0  0  0999 V2000
  584.6001  589.2059  584.4257 F   0  0  0  0  0  0  0  0  0  0  0  0
  584.5256  589.5809  585.4437 H   0  0  0  0  0  0  0  0  0  0  0  0
  580.9425  589.3318  584.3871 F   0  0  0  0  0  0  0  0  0  0  0  0
  581.9229  589.1414  584.6084 H   0  0  0  0  0  0  0  0  0  0  0  0
  584.0891  588.3497  585.9748 F   0  0  0  0  0  0  0  0  0  0  0  0
  583.4776  587.5578  585.9737 H   0  0  0  0  0  0  0  0  0  0  0  0
  585.8169  591.3927  587.0248 F   0  0  0  0  0  0  0  0  0  0  0  0
  585.1521  590.6093  586.9627 H   0  0  0  0  0  0  0  0  0  0  0  0
  582.9985  589.1714  587.6688 F   0  0  0  0  0  0  0  0  0  0  0  0
  582.7455  589.8272  588.3814 H   0  0  0  0  0  0  0  0  0  0  0  0
  583.9428  588.4220  587.8971 F   0  0  0  0  0  0  0  0  0  0  0  0
  584.3833  589.0730  587.1428 H   0  0  0  0  0  0  0  0  0  0  0  0
  1  2  1  0  0  0  0
  3  4  1  0  0  0  0
  5  6  1  0  0  0  0
  7  8  1  0  0  0  0
  9 10  1  0  0  0  0
 11 12  1  0  0  0  0
M  END
