
 OpenBabel11272015173D

 12  6  0  0  0  0  0  0  0  0999 V2000
  377.4362  373.2247  379.1749 F   0  0  0  0  0  0  0  0  0  0  0  0
  377.3672  374.1333  379.5911 H   0  0  0  0  0  0  0  0  0  0  0  0
  374.4041  375.1119  379.7709 F   0  0  0  0  0  0  0  0  0  0  0  0
  375.0063  374.2172  379.9261 H   0  0  0  0  0  0  0  0  0  0  0  0
  377.5812  376.3779  381.0333 F   0  0  0  0  0  0  0  0  0  0  0  0
  376.6817  376.8070  380.9326 H   0  0  0  0  0  0  0  0  0  0  0  0
  374.0008  374.4254  378.8788 F   0  0  0  0  0  0  0  0  0  0  0  0
  374.8934  373.9783  378.7898 H   0  0  0  0  0  0  0  0  0  0  0  0
  374.8479  371.8541  381.2805 F   0  0  0  0  0  0  0  0  0  0  0  0
  375.1463  372.5420  380.4907 H   0  0  0  0  0  0  0  0  0  0  0  0
  376.9194  375.5279  381.9742 F   0  0  0  0  0  0  0  0  0  0  0  0
  376.9566  374.9738  381.1436 H   0  0  0  0  0  0  0  0  0  0  0  0
  1  2  1  0  0  0  0
  3  4  1  0  0  0  0
  5  6  1  0  0  0  0
  7  8  1  0  0  0  0
  9 10  1  0  0  0  0
 11 12  1  0  0  0  0
M  END
