
 OpenBabel11272015223D

 12  6  0  0  0  0  0  0  0  0999 V2000
  665.3436  674.7545  671.3470 F   0  0  0  0  0  0  0  0  0  0  0  0
  665.6265  675.1912  670.4804 H   0  0  0  0  0  0  0  0  0  0  0  0
  663.9758  678.0969  671.2192 F   0  0  0  0  0  0  0  0  0  0  0  0
  664.0759  677.1051  670.8349 H   0  0  0  0  0  0  0  0  0  0  0  0
  663.3472  677.2058  666.7135 F   0  0  0  0  0  0  0  0  0  0  0  0
  664.2541  677.1024  667.1216 H   0  0  0  0  0  0  0  0  0  0  0  0
  665.9208  675.7790  667.8805 F   0  0  0  0  0  0  0  0  0  0  0  0
  665.0773  675.3195  668.1605 H   0  0  0  0  0  0  0  0  0  0  0  0
  666.4139  677.0391  668.7064 F   0  0  0  0  0  0  0  0  0  0  0  0
  665.7971  677.1886  669.4761 H   0  0  0  0  0  0  0  0  0  0  0  0
  663.0566  675.7139  668.7365 F   0  0  0  0  0  0  0  0  0  0  0  0
  663.9348  676.0625  669.3844 H   0  0  0  0  0  0  0  0  0  0  0  0
  1  2  1  0  0  0  0
  3  4  1  0  0  0  0
  5  6  1  0  0  0  0
  7  8  1  0  0  0  0
  9 10  1  0  0  0  0
 11 12  1  0  0  0  0
M  END
