
 OpenBabel11272015213D

 12  6  0  0  0  0  0  0  0  0999 V2000
  607.7550  613.8719  608.5040 F   0  0  0  0  0  0  0  0  0  0  0  0
  607.5889  614.2275  609.4238 H   0  0  0  0  0  0  0  0  0  0  0  0
  604.5516  613.6279  610.2517 F   0  0  0  0  0  0  0  0  0  0  0  0
  605.4380  613.8371  609.8414 H   0  0  0  0  0  0  0  0  0  0  0  0
  606.6918  613.0347  609.2495 F   0  0  0  0  0  0  0  0  0  0  0  0
  606.7445  613.8086  609.8803 H   0  0  0  0  0  0  0  0  0  0  0  0
  610.6653  612.2136  609.8688 F   0  0  0  0  0  0  0  0  0  0  0  0
  609.8060  612.2061  609.1958 H   0  0  0  0  0  0  0  0  0  0  0  0
  606.9913  616.1369  611.1781 F   0  0  0  0  0  0  0  0  0  0  0  0
  606.6847  615.3009  610.5609 H   0  0  0  0  0  0  0  0  0  0  0  0
  608.6571  610.5082  607.3907 F   0  0  0  0  0  0  0  0  0  0  0  0
  608.5568  611.4535  607.6994 H   0  0  0  0  0  0  0  0  0  0  0  0
  1  2  1  0  0  0  0
  3  4  1  0  0  0  0
  5  6  1  0  0  0  0
  7  8  1  0  0  0  0
  9 10  1  0  0  0  0
 11 12  1  0  0  0  0
M  END
