
 OpenBabel11272015133D

 10  5  0  0  0  0  0  0  0  0999 V2000
  218.8502  210.1713  223.8117 F   0  0  0  0  0  0  0  0  0  0  0  0
  219.5822  210.7063  224.2227 H   0  0  0  0  0  0  0  0  0  0  0  0
  221.5657  210.9972  226.0199 F   0  0  0  0  0  0  0  0  0  0  0  0
  221.0929  210.7364  225.1790 H   0  0  0  0  0  0  0  0  0  0  0  0
  218.9830  215.5743  226.2002 F   0  0  0  0  0  0  0  0  0  0  0  0
  219.6048  214.9814  225.6858 H   0  0  0  0  0  0  0  0  0  0  0  0
  220.8984  213.0524  224.3587 F   0  0  0  0  0  0  0  0  0  0  0  0
  220.4759  212.1559  224.7716 H   0  0  0  0  0  0  0  0  0  0  0  0
  220.3977  210.7105  227.0774 F   0  0  0  0  0  0  0  0  0  0  0  0
  220.0116  210.3591  226.2181 H   0  0  0  0  0  0  0  0  0  0  0  0
  1  2  1  0  0  0  0
  3  4  1  0  0  0  0
  5  6  1  0  0  0  0
  7  8  1  0  0  0  0
  9 10  1  0  0  0  0
M  END
