
 OpenBabel11272015223D

 12  6  0  0  0  0  0  0  0  0999 V2000
  642.3135  654.3124  648.4239 F   0  0  0  0  0  0  0  0  0  0  0  0
  642.4846  653.6312  647.7086 H   0  0  0  0  0  0  0  0  0  0  0  0
  640.4029  651.3946  647.4624 F   0  0  0  0  0  0  0  0  0  0  0  0
  641.2000  652.1094  647.2565 H   0  0  0  0  0  0  0  0  0  0  0  0
  642.3897  654.0215  645.8326 F   0  0  0  0  0  0  0  0  0  0  0  0
  642.8905  654.8136  645.4815 H   0  0  0  0  0  0  0  0  0  0  0  0
  642.5510  651.4657  646.1311 F   0  0  0  0  0  0  0  0  0  0  0  0
  641.9192  651.1528  646.8403 H   0  0  0  0  0  0  0  0  0  0  0  0
  643.0725  652.5679  645.3218 F   0  0  0  0  0  0  0  0  0  0  0  0
  643.1861  653.3975  644.7743 H   0  0  0  0  0  0  0  0  0  0  0  0
  645.7050  653.2857  647.6980 F   0  0  0  0  0  0  0  0  0  0  0  0
  644.6544  653.3397  647.4100 H   0  0  0  0  0  0  0  0  0  0  0  0
  1  2  1  0  0  0  0
  3  4  1  0  0  0  0
  5  6  1  0  0  0  0
  7  8  1  0  0  0  0
  9 10  1  0  0  0  0
 11 12  1  0  0  0  0
M  END
