
 OpenBabel11272015223D

 12  6  0  0  0  0  0  0  0  0999 V2000
  681.2130  693.7376  688.8477 F   0  0  0  0  0  0  0  0  0  0  0  0
  680.9895  694.4847  688.2156 H   0  0  0  0  0  0  0  0  0  0  0  0
  682.8474  696.8955  689.7167 F   0  0  0  0  0  0  0  0  0  0  0  0
  682.2552  696.0953  689.5699 H   0  0  0  0  0  0  0  0  0  0  0  0
  682.9247  697.5472  688.2981 F   0  0  0  0  0  0  0  0  0  0  0  0
  682.0965  697.2250  687.8324 H   0  0  0  0  0  0  0  0  0  0  0  0
  680.1670  696.1610  686.3174 F   0  0  0  0  0  0  0  0  0  0  0  0
  680.8193  696.9084  686.1836 H   0  0  0  0  0  0  0  0  0  0  0  0
  680.3165  696.8078  687.0683 F   0  0  0  0  0  0  0  0  0  0  0  0
  680.9243  696.7932  687.8641 H   0  0  0  0  0  0  0  0  0  0  0  0
  683.6911  695.4730  686.8752 F   0  0  0  0  0  0  0  0  0  0  0  0
  682.6225  695.3869  687.1699 H   0  0  0  0  0  0  0  0  0  0  0  0
  1  2  1  0  0  0  0
  3  4  1  0  0  0  0
  5  6  1  0  0  0  0
  7  8  1  0  0  0  0
  9 10  1  0  0  0  0
 11 12  1  0  0  0  0
M  END
