
 OpenBabel12072013203D

  8  5  0  0  0  0  0  0  0  0999 V2000
   28.2459   30.8908   29.3109 F   0  0  0  0  0  0  0  0  0  0  0  0
   29.0163   30.3827   29.6933 H   0  0  0  0  0  0  0  0  0  0  0  0
   28.8391   29.8642   31.7143 H   0  0  0  0  0  0  0  0  0  0  0  0
   29.1321   29.7252   32.6291 O   0  0  0  0  0  0  0  0  0  0  0  0
   29.8417   30.3227   32.9037 H   0  0  0  0  0  0  0  0  0  0  0  0
   30.4276   29.9787   30.7430 H   0  0  0  0  0  0  0  0  0  0  0  0
   30.7182   29.0714   30.1969 O   0  0  0  0  0  0  0  0  0  0  0  0
   30.1561   28.5190   30.9601 H   0  0  0  0  0  0  0  0  0  0  0  0
  1  2  1  0  0  0  0
  3  4  1  0  0  0  0
  4  5  1  0  0  0  0
  6  7  1  0  0  0  0
  7  8  1  0  0  0  0
M  END
