
 OpenBabel11272015163D

 12  6  0  0  0  0  0  0  0  0999 V2000
  347.9952  348.5232  352.0129 F   0  0  0  0  0  0  0  0  0  0  0  0
  348.6666  348.8955  352.6689 H   0  0  0  0  0  0  0  0  0  0  0  0
  346.1976  349.7484  354.9504 F   0  0  0  0  0  0  0  0  0  0  0  0
  346.4393  349.4005  354.0195 H   0  0  0  0  0  0  0  0  0  0  0  0
  346.1942  348.9544  351.3828 F   0  0  0  0  0  0  0  0  0  0  0  0
  347.0056  348.6341  351.8730 H   0  0  0  0  0  0  0  0  0  0  0  0
  349.8218  350.2365  354.6818 F   0  0  0  0  0  0  0  0  0  0  0  0
  348.8530  350.0983  354.8951 H   0  0  0  0  0  0  0  0  0  0  0  0
  349.1499  347.8115  353.2240 F   0  0  0  0  0  0  0  0  0  0  0  0
  349.0827  347.1126  353.9324 H   0  0  0  0  0  0  0  0  0  0  0  0
  345.8626  345.8163  353.2363 F   0  0  0  0  0  0  0  0  0  0  0  0
  346.2123  346.6885  352.8239 H   0  0  0  0  0  0  0  0  0  0  0  0
  1  2  1  0  0  0  0
  3  4  1  0  0  0  0
  5  6  1  0  0  0  0
  7  8  1  0  0  0  0
  9 10  1  0  0  0  0
 11 12  1  0  0  0  0
M  END
