
 OpenBabel11272015143D

 12  6  0  0  0  0  0  0  0  0999 V2000
  220.8073  213.0328  222.6300 F   0  0  0  0  0  0  0  0  0  0  0  0
  219.8183  212.9633  222.8098 H   0  0  0  0  0  0  0  0  0  0  0  0
  219.1307  216.1285  221.7999 F   0  0  0  0  0  0  0  0  0  0  0  0
  219.1075  215.1389  222.2571 H   0  0  0  0  0  0  0  0  0  0  0  0
  218.2780  212.6271  222.5592 F   0  0  0  0  0  0  0  0  0  0  0  0
  217.6687  213.1390  221.9533 H   0  0  0  0  0  0  0  0  0  0  0  0
  217.2866  212.1294  223.0819 F   0  0  0  0  0  0  0  0  0  0  0  0
  217.6346  211.7323  222.2297 H   0  0  0  0  0  0  0  0  0  0  0  0
  217.3143  213.5454  223.5613 F   0  0  0  0  0  0  0  0  0  0  0  0
  217.6902  213.9037  224.4140 H   0  0  0  0  0  0  0  0  0  0  0  0
  218.1135  211.0404  221.1472 F   0  0  0  0  0  0  0  0  0  0  0  0
  218.8176  211.6776  221.4524 H   0  0  0  0  0  0  0  0  0  0  0  0
  1  2  1  0  0  0  0
  3  4  1  0  0  0  0
  5  6  1  0  0  0  0
  7  8  1  0  0  0  0
  9 10  1  0  0  0  0
 11 12  1  0  0  0  0
M  END
