
 OpenBabel11272015133D

 10  5  0  0  0  0  0  0  0  0999 V2000
  210.8262  197.7098  215.7157 F   0  0  0  0  0  0  0  0  0  0  0  0
  210.2521  198.5141  215.5415 H   0  0  0  0  0  0  0  0  0  0  0  0
  210.2585  200.1768  213.0605 F   0  0  0  0  0  0  0  0  0  0  0  0
  210.5132  199.5477  213.7947 H   0  0  0  0  0  0  0  0  0  0  0  0
  209.0566  200.9124  215.5501 F   0  0  0  0  0  0  0  0  0  0  0  0
  208.5584  200.6711  216.3825 H   0  0  0  0  0  0  0  0  0  0  0  0
  209.2409  203.9086  213.4681 F   0  0  0  0  0  0  0  0  0  0  0  0
  208.9299  203.0746  213.9683 H   0  0  0  0  0  0  0  0  0  0  0  0
  207.2954  201.1938  214.9607 F   0  0  0  0  0  0  0  0  0  0  0  0
  208.0633  201.0016  214.3508 H   0  0  0  0  0  0  0  0  0  0  0  0
  1  2  1  0  0  0  0
  3  4  1  0  0  0  0
  5  6  1  0  0  0  0
  7  8  1  0  0  0  0
  9 10  1  0  0  0  0
M  END
