
 OpenBabel11272015233D

 12  6  0  0  0  0  0  0  0  0999 V2000
  708.0028  721.4442  714.6898 F   0  0  0  0  0  0  0  0  0  0  0  0
  708.3690  722.3775  714.5452 H   0  0  0  0  0  0  0  0  0  0  0  0
  709.3296  724.8246  714.1754 F   0  0  0  0  0  0  0  0  0  0  0  0
  708.8604  723.9432  714.2403 H   0  0  0  0  0  0  0  0  0  0  0  0
  708.4952  725.0631  714.6670 F   0  0  0  0  0  0  0  0  0  0  0  0
  708.0431  724.8711  715.5394 H   0  0  0  0  0  0  0  0  0  0  0  0
  711.6046  721.4034  714.0216 F   0  0  0  0  0  0  0  0  0  0  0  0
  710.6456  721.2629  714.2863 H   0  0  0  0  0  0  0  0  0  0  0  0
  708.7394  724.6427  713.2276 F   0  0  0  0  0  0  0  0  0  0  0  0
  708.9423  723.5744  713.3026 H   0  0  0  0  0  0  0  0  0  0  0  0
  710.5314  721.7239  712.0664 F   0  0  0  0  0  0  0  0  0  0  0  0
  709.8202  721.8348  712.7615 H   0  0  0  0  0  0  0  0  0  0  0  0
  1  2  1  0  0  0  0
  3  4  1  0  0  0  0
  5  6  1  0  0  0  0
  7  8  1  0  0  0  0
  9 10  1  0  0  0  0
 11 12  1  0  0  0  0
M  END
