
 OpenBabel11272015223D

 12  6  0  0  0  0  0  0  0  0999 V2000
  639.6803  650.8596  645.5244 F   0  0  0  0  0  0  0  0  0  0  0  0
  639.9322  650.4162  644.6647 H   0  0  0  0  0  0  0  0  0  0  0  0
  638.1234  651.0564  642.2655 F   0  0  0  0  0  0  0  0  0  0  0  0
  638.9632  650.7501  642.8914 H   0  0  0  0  0  0  0  0  0  0  0  0
  640.0979  652.8123  643.5941 F   0  0  0  0  0  0  0  0  0  0  0  0
  640.4635  651.9897  643.1497 H   0  0  0  0  0  0  0  0  0  0  0  0
  640.9382  647.4759  645.5454 F   0  0  0  0  0  0  0  0  0  0  0  0
  640.8999  648.4573  645.0228 H   0  0  0  0  0  0  0  0  0  0  0  0
  641.3912  649.5397  642.5875 F   0  0  0  0  0  0  0  0  0  0  0  0
  640.7502  649.8475  643.2920 H   0  0  0  0  0  0  0  0  0  0  0  0
  642.2129  649.8342  643.0936 F   0  0  0  0  0  0  0  0  0  0  0  0
  641.6461  650.0464  643.8956 H   0  0  0  0  0  0  0  0  0  0  0  0
  1  2  1  0  0  0  0
  3  4  1  0  0  0  0
  5  6  1  0  0  0  0
  7  8  1  0  0  0  0
  9 10  1  0  0  0  0
 11 12  1  0  0  0  0
M  END
