
 OpenBabel11272015183D

 12  6  0  0  0  0  0  0  0  0999 V2000
  452.9952  449.3167  453.3641 F   0  0  0  0  0  0  0  0  0  0  0  0
  453.0106  449.0052  452.4106 H   0  0  0  0  0  0  0  0  0  0  0  0
  450.2495  450.0992  451.0658 F   0  0  0  0  0  0  0  0  0  0  0  0
  450.9923  449.9983  451.7270 H   0  0  0  0  0  0  0  0  0  0  0  0
  451.0794  449.1546  452.6012 F   0  0  0  0  0  0  0  0  0  0  0  0
  450.5010  448.8336  451.8521 H   0  0  0  0  0  0  0  0  0  0  0  0
  452.4029  448.0969  449.9673 F   0  0  0  0  0  0  0  0  0  0  0  0
  452.3192  447.9586  450.9545 H   0  0  0  0  0  0  0  0  0  0  0  0
  453.3414  448.6345  449.7771 F   0  0  0  0  0  0  0  0  0  0  0  0
  452.5958  448.9783  450.3941 H   0  0  0  0  0  0  0  0  0  0  0  0
  450.1050  447.2678  452.6388 F   0  0  0  0  0  0  0  0  0  0  0  0
  451.0066  447.7780  452.2952 H   0  0  0  0  0  0  0  0  0  0  0  0
  1  2  1  0  0  0  0
  3  4  1  0  0  0  0
  5  6  1  0  0  0  0
  7  8  1  0  0  0  0
  9 10  1  0  0  0  0
 11 12  1  0  0  0  0
M  END
