
 OpenBabel12072017423D

  9  6  0  0  0  0  0  0  0  0999 V2000
   21.1358   20.6086   18.8793 H   0  0  0  0  0  0  0  0  0  0  0  0
   22.0018   20.6911   19.3034 O   0  0  0  0  0  0  0  0  0  0  0  0
   22.7113   20.2225   18.8419 H   0  0  0  0  0  0  0  0  0  0  0  0
   18.7770   19.6465   17.0685 H   0  0  0  0  0  0  0  0  0  0  0  0
   19.3321   20.1243   17.7008 O   0  0  0  0  0  0  0  0  0  0  0  0
   20.2622   20.1841   17.4393 H   0  0  0  0  0  0  0  0  0  0  0  0
   21.8977   19.4146   15.7460 H   0  0  0  0  0  0  0  0  0  0  0  0
   22.2331   19.9658   16.4656 O   0  0  0  0  0  0  0  0  0  0  0  0
   22.0630   19.6075   17.3481 H   0  0  0  0  0  0  0  0  0  0  0  0
  1  2  1  0  0  0  0
  2  3  1  0  0  0  0
  4  5  1  0  0  0  0
  5  6  1  0  0  0  0
  7  8  1  0  0  0  0
  8  9  1  0  0  0  0
M  END
