
 OpenBabel11272015213D

 12  6  0  0  0  0  0  0  0  0999 V2000
  597.4618  601.9846  599.8469 F   0  0  0  0  0  0  0  0  0  0  0  0
  596.6508  602.5392  599.6567 H   0  0  0  0  0  0  0  0  0  0  0  0
  594.6046  601.0417  597.7796 F   0  0  0  0  0  0  0  0  0  0  0  0
  595.2593  601.5389  598.3797 H   0  0  0  0  0  0  0  0  0  0  0  0
  596.4049  603.5074  599.7977 F   0  0  0  0  0  0  0  0  0  0  0  0
  595.5740  604.0595  599.8339 H   0  0  0  0  0  0  0  0  0  0  0  0
  599.1162  605.1155  599.1146 F   0  0  0  0  0  0  0  0  0  0  0  0
  598.9576  604.0596  598.8903 H   0  0  0  0  0  0  0  0  0  0  0  0
  594.2707  603.5137  600.4053 F   0  0  0  0  0  0  0  0  0  0  0  0
  594.8686  602.8112  599.8395 H   0  0  0  0  0  0  0  0  0  0  0  0
  599.8038  602.2212  597.0530 F   0  0  0  0  0  0  0  0  0  0  0  0
  599.1633  602.2686  597.8151 H   0  0  0  0  0  0  0  0  0  0  0  0
  1  2  1  0  0  0  0
  3  4  1  0  0  0  0
  5  6  1  0  0  0  0
  7  8  1  0  0  0  0
  9 10  1  0  0  0  0
 11 12  1  0  0  0  0
M  END
