
 OpenBabel11272015243D

 12  6  0  0  0  0  0  0  0  0999 V2000
  750.1235  764.0711  753.2093 F   0  0  0  0  0  0  0  0  0  0  0  0
  749.4568  764.3383  754.0265 H   0  0  0  0  0  0  0  0  0  0  0  0
  749.0201  761.0627  754.9751 F   0  0  0  0  0  0  0  0  0  0  0  0
  749.5588  761.8099  754.5361 H   0  0  0  0  0  0  0  0  0  0  0  0
  751.5990  763.4298  753.9091 F   0  0  0  0  0  0  0  0  0  0  0  0
  751.0812  763.8063  754.6823 H   0  0  0  0  0  0  0  0  0  0  0  0
  749.5829  764.6146  756.7360 F   0  0  0  0  0  0  0  0  0  0  0  0
  749.8755  764.3163  755.8264 H   0  0  0  0  0  0  0  0  0  0  0  0
  746.8512  765.0443  754.4178 F   0  0  0  0  0  0  0  0  0  0  0  0
  747.8001  765.3860  754.8233 H   0  0  0  0  0  0  0  0  0  0  0  0
  749.5802  767.4218  754.4684 F   0  0  0  0  0  0  0  0  0  0  0  0
  749.6766  766.3525  754.6359 H   0  0  0  0  0  0  0  0  0  0  0  0
  1  2  1  0  0  0  0
  3  4  1  0  0  0  0
  5  6  1  0  0  0  0
  7  8  1  0  0  0  0
  9 10  1  0  0  0  0
 11 12  1  0  0  0  0
M  END
