
 OpenBabel11272015133D

 10  5  0  0  0  0  0  0  0  0999 V2000
  201.4618  190.0468  206.0551 F   0  0  0  0  0  0  0  0  0  0  0  0
  200.8506  190.9089  206.1500 H   0  0  0  0  0  0  0  0  0  0  0  0
  198.2117  191.4648  205.6896 F   0  0  0  0  0  0  0  0  0  0  0  0
  199.2257  191.6197  205.9652 H   0  0  0  0  0  0  0  0  0  0  0  0
  201.1644  192.3552  207.6627 F   0  0  0  0  0  0  0  0  0  0  0  0
  201.9077  192.1058  208.2830 H   0  0  0  0  0  0  0  0  0  0  0  0
  203.9375  192.0105  205.4280 F   0  0  0  0  0  0  0  0  0  0  0  0
  203.0461  192.3387  205.7408 H   0  0  0  0  0  0  0  0  0  0  0  0
  200.9353  193.5301  206.8713 F   0  0  0  0  0  0  0  0  0  0  0  0
  200.0444  193.0999  206.7237 H   0  0  0  0  0  0  0  0  0  0  0  0
  1  2  1  0  0  0  0
  3  4  1  0  0  0  0
  5  6  1  0  0  0  0
  7  8  1  0  0  0  0
  9 10  1  0  0  0  0
M  END
