
 OpenBabel11272015123D

  8  4  0  0  0  0  0  0  0  0999 V2000
   32.0775   29.2837   30.0370 F   0  0  0  0  0  0  0  0  0  0  0  0
   31.9164   28.3418   30.4984 H   0  0  0  0  0  0  0  0  0  0  0  0
   30.1145   26.3105   30.1690 F   0  0  0  0  0  0  0  0  0  0  0  0
   30.9356   26.8547   30.5640 H   0  0  0  0  0  0  0  0  0  0  0  0
   32.8981   26.7115   32.4416 F   0  0  0  0  0  0  0  0  0  0  0  0
   33.3210   27.5904   32.2210 H   0  0  0  0  0  0  0  0  0  0  0  0
   31.1572   29.7674   33.5472 F   0  0  0  0  0  0  0  0  0  0  0  0
   31.4799   29.5998   32.6155 H   0  0  0  0  0  0  0  0  0  0  0  0
  1  2  1  0  0  0  0
  3  4  1  0  0  0  0
  5  6  1  0  0  0  0
  7  8  1  0  0  0  0
M  END
