
 OpenBabel11272015173D

 12  6  0  0  0  0  0  0  0  0999 V2000
  415.3421  413.8002  417.5303 F   0  0  0  0  0  0  0  0  0  0  0  0
  415.9318  412.8904  417.4748 H   0  0  0  0  0  0  0  0  0  0  0  0
  418.0188  412.5896  415.3030 F   0  0  0  0  0  0  0  0  0  0  0  0
  417.1188  412.5316  415.9762 H   0  0  0  0  0  0  0  0  0  0  0  0
  415.9215  414.5764  417.4096 F   0  0  0  0  0  0  0  0  0  0  0  0
  416.7149  414.0059  417.6202 H   0  0  0  0  0  0  0  0  0  0  0  0
  418.4407  412.0118  418.0967 F   0  0  0  0  0  0  0  0  0  0  0  0
  417.7560  411.7190  417.4291 H   0  0  0  0  0  0  0  0  0  0  0  0
  415.5547  410.3339  416.6072 F   0  0  0  0  0  0  0  0  0  0  0  0
  416.4192  410.6565  416.9927 H   0  0  0  0  0  0  0  0  0  0  0  0
  412.5179  411.7110  418.6054 F   0  0  0  0  0  0  0  0  0  0  0  0
  413.2620  412.2887  418.2702 H   0  0  0  0  0  0  0  0  0  0  0  0
  1  2  1  0  0  0  0
  3  4  1  0  0  0  0
  5  6  1  0  0  0  0
  7  8  1  0  0  0  0
  9 10  1  0  0  0  0
 11 12  1  0  0  0  0
M  END
