
 OpenBabel11272015143D

 10  5  0  0  0  0  0  0  0  0999 V2000
  239.5479  230.7776  240.9181 F   0  0  0  0  0  0  0  0  0  0  0  0
  238.9679  230.1357  240.4095 H   0  0  0  0  0  0  0  0  0  0  0  0
  236.5884  229.0704  239.7888 F   0  0  0  0  0  0  0  0  0  0  0  0
  237.3041  229.7675  239.8589 H   0  0  0  0  0  0  0  0  0  0  0  0
  234.3884  226.2580  240.6128 F   0  0  0  0  0  0  0  0  0  0  0  0
  235.0510  226.9311  240.2769 H   0  0  0  0  0  0  0  0  0  0  0  0
  237.5282  225.8507  242.3586 F   0  0  0  0  0  0  0  0  0  0  0  0
  236.9422  226.3388  241.5794 H   0  0  0  0  0  0  0  0  0  0  0  0
  237.3211  228.1821  239.6013 F   0  0  0  0  0  0  0  0  0  0  0  0
  236.8168  228.2894  240.4594 H   0  0  0  0  0  0  0  0  0  0  0  0
  1  2  1  0  0  0  0
  3  4  1  0  0  0  0
  5  6  1  0  0  0  0
  7  8  1  0  0  0  0
  9 10  1  0  0  0  0
M  END
