
 OpenBabel12072016593D

  8  5  0  0  0  0  0  0  0  0999 V2000
   13.3578   10.6838    8.5915 F   0  0  0  0  0  0  0  0  0  0  0  0
   14.0243   10.8381    9.3227 H   0  0  0  0  0  0  0  0  0  0  0  0
   14.2742   10.9630   11.0948 H   0  0  0  0  0  0  0  0  0  0  0  0
   14.8043   11.2385   11.8710 O   0  0  0  0  0  0  0  0  0  0  0  0
   15.4843   11.8893   11.6481 H   0  0  0  0  0  0  0  0  0  0  0  0
   13.7777    9.5778    9.2886 H   0  0  0  0  0  0  0  0  0  0  0  0
   12.9548    9.8250    9.7383 O   0  0  0  0  0  0  0  0  0  0  0  0
   12.1854    9.3072    9.4552 H   0  0  0  0  0  0  0  0  0  0  0  0
  1  2  1  0  0  0  0
  3  4  1  0  0  0  0
  4  5  1  0  0  0  0
  6  7  1  0  0  0  0
  7  8  1  0  0  0  0
M  END
