
 OpenBabel11272015123D

 10  5  0  0  0  0  0  0  0  0999 V2000
  120.4561  114.9265  121.5739 F   0  0  0  0  0  0  0  0  0  0  0  0
  120.8153  114.0106  121.3951 H   0  0  0  0  0  0  0  0  0  0  0  0
  122.3352  111.8835  121.9741 F   0  0  0  0  0  0  0  0  0  0  0  0
  122.1247  112.8377  121.7540 H   0  0  0  0  0  0  0  0  0  0  0  0
  120.1856  114.1348  122.9703 F   0  0  0  0  0  0  0  0  0  0  0  0
  120.5936  113.4324  122.3858 H   0  0  0  0  0  0  0  0  0  0  0  0
  121.7510  111.5616  120.8693 F   0  0  0  0  0  0  0  0  0  0  0  0
  121.3550  112.4507  121.0979 H   0  0  0  0  0  0  0  0  0  0  0  0
  120.0743  111.4007  122.5252 F   0  0  0  0  0  0  0  0  0  0  0  0
  120.0856  112.3552  122.2275 H   0  0  0  0  0  0  0  0  0  0  0  0
  1  2  1  0  0  0  0
  3  4  1  0  0  0  0
  5  6  1  0  0  0  0
  7  8  1  0  0  0  0
  9 10  1  0  0  0  0
M  END
