
 OpenBabel12072013203D

  8  5  0  0  0  0  0  0  0  0999 V2000
   28.3190   28.4109   26.0410 F   0  0  0  0  0  0  0  0  0  0  0  0
   28.2998   27.7013   26.7464 H   0  0  0  0  0  0  0  0  0  0  0  0
   26.5533   27.7107   27.9861 H   0  0  0  0  0  0  0  0  0  0  0  0
   25.5860   27.8790   28.3166 O   0  0  0  0  0  0  0  0  0  0  0  0
   25.6252   28.1664   29.2373 H   0  0  0  0  0  0  0  0  0  0  0  0
   27.6554   27.1513   28.5852 H   0  0  0  0  0  0  0  0  0  0  0  0
   28.3089   26.4337   28.5414 O   0  0  0  0  0  0  0  0  0  0  0  0
   28.2115   25.8752   27.7562 H   0  0  0  0  0  0  0  0  0  0  0  0
  1  2  1  0  0  0  0
  3  4  1  0  0  0  0
  4  5  1  0  0  0  0
  6  7  1  0  0  0  0
  7  8  1  0  0  0  0
M  END
