
 OpenBabel12072017423D

  9  6  0  0  0  0  0  0  0  0999 V2000
   15.8654   16.2800   13.3706 H   0  0  0  0  0  0  0  0  0  0  0  0
   16.1941   16.4675   14.2602 O   0  0  0  0  0  0  0  0  0  0  0  0
   15.5772   16.9695   14.8102 H   0  0  0  0  0  0  0  0  0  0  0  0
   14.5885   15.5426   12.3396 H   0  0  0  0  0  0  0  0  0  0  0  0
   14.6012   16.1218   11.5653 O   0  0  0  0  0  0  0  0  0  0  0  0
   13.7447   16.5196   11.3577 H   0  0  0  0  0  0  0  0  0  0  0  0
   15.8255   14.7261   12.8610 H   0  0  0  0  0  0  0  0  0  0  0  0
   16.1039   13.7048   12.8277 O   0  0  0  0  0  0  0  0  0  0  0  0
   16.7732   13.6288   12.1340 H   0  0  0  0  0  0  0  0  0  0  0  0
  1  2  1  0  0  0  0
  2  3  1  0  0  0  0
  4  5  1  0  0  0  0
  5  6  1  0  0  0  0
  7  8  1  0  0  0  0
  8  9  1  0  0  0  0
M  END
