
 OpenBabel11272015233D

 12  6  0  0  0  0  0  0  0  0999 V2000
  722.0234  738.9023  730.3780 F   0  0  0  0  0  0  0  0  0  0  0  0
  722.5919  739.5029  729.8149 H   0  0  0  0  0  0  0  0  0  0  0  0
  722.6698  738.5094  726.7971 F   0  0  0  0  0  0  0  0  0  0  0  0
  722.6820  738.4456  727.8156 H   0  0  0  0  0  0  0  0  0  0  0  0
  722.9867  737.4164  730.2757 F   0  0  0  0  0  0  0  0  0  0  0  0
  723.1064  736.5774  729.7397 H   0  0  0  0  0  0  0  0  0  0  0  0
  724.1707  741.3129  728.6189 F   0  0  0  0  0  0  0  0  0  0  0  0
  723.7988  740.5235  728.1290 H   0  0  0  0  0  0  0  0  0  0  0  0
  721.2275  737.3892  727.3736 F   0  0  0  0  0  0  0  0  0  0  0  0
  720.5935  737.1118  728.0995 H   0  0  0  0  0  0  0  0  0  0  0  0
  719.5255  736.2266  730.3951 F   0  0  0  0  0  0  0  0  0  0  0  0
  720.3760  736.7847  730.3965 H   0  0  0  0  0  0  0  0  0  0  0  0
  1  2  1  0  0  0  0
  3  4  1  0  0  0  0
  5  6  1  0  0  0  0
  7  8  1  0  0  0  0
  9 10  1  0  0  0  0
 11 12  1  0  0  0  0
M  END
