
 OpenBabel11272015193D

 12  6  0  0  0  0  0  0  0  0999 V2000
  509.9343  512.8791  513.1921 F   0  0  0  0  0  0  0  0  0  0  0  0
  510.1269  513.4571  512.3994 H   0  0  0  0  0  0  0  0  0  0  0  0
  513.2767  513.2801  511.7774 F   0  0  0  0  0  0  0  0  0  0  0  0
  512.3359  512.9987  512.0090 H   0  0  0  0  0  0  0  0  0  0  0  0
  509.9005  511.8801  511.9668 F   0  0  0  0  0  0  0  0  0  0  0  0
  509.1910  511.1801  512.0455 H   0  0  0  0  0  0  0  0  0  0  0  0
  510.3962  514.7807  510.0909 F   0  0  0  0  0  0  0  0  0  0  0  0
  511.1070  514.4747  510.7469 H   0  0  0  0  0  0  0  0  0  0  0  0
  512.5732  514.1908  512.9749 F   0  0  0  0  0  0  0  0  0  0  0  0
  511.8530  513.5256  512.7779 H   0  0  0  0  0  0  0  0  0  0  0  0
  511.1146  516.1501  512.1951 F   0  0  0  0  0  0  0  0  0  0  0  0
  511.2867  515.0774  512.2995 H   0  0  0  0  0  0  0  0  0  0  0  0
  1  2  1  0  0  0  0
  3  4  1  0  0  0  0
  5  6  1  0  0  0  0
  7  8  1  0  0  0  0
  9 10  1  0  0  0  0
 11 12  1  0  0  0  0
M  END
