
 OpenBabel11272015183D

 12  6  0  0  0  0  0  0  0  0999 V2000
  474.4540  472.5825  471.9273 F   0  0  0  0  0  0  0  0  0  0  0  0
  473.5331  472.3267  472.2596 H   0  0  0  0  0  0  0  0  0  0  0  0
  473.5414  469.0427  471.7287 F   0  0  0  0  0  0  0  0  0  0  0  0
  473.6635  470.0379  471.6682 H   0  0  0  0  0  0  0  0  0  0  0  0
  474.4551  469.2453  473.4238 F   0  0  0  0  0  0  0  0  0  0  0  0
  473.7079  469.8075  473.7791 H   0  0  0  0  0  0  0  0  0  0  0  0
  470.8653  472.2638  472.5067 F   0  0  0  0  0  0  0  0  0  0  0  0
  471.7145  471.8622  472.8536 H   0  0  0  0  0  0  0  0  0  0  0  0
  471.5331  471.3436  473.7465 F   0  0  0  0  0  0  0  0  0  0  0  0
  472.2096  470.7115  473.3401 H   0  0  0  0  0  0  0  0  0  0  0  0
  472.9981  469.3433  472.6146 F   0  0  0  0  0  0  0  0  0  0  0  0
  472.8794  470.4179  472.4731 H   0  0  0  0  0  0  0  0  0  0  0  0
  1  2  1  0  0  0  0
  3  4  1  0  0  0  0
  5  6  1  0  0  0  0
  7  8  1  0  0  0  0
  9 10  1  0  0  0  0
 11 12  1  0  0  0  0
M  END
