
 OpenBabel11272015163D

 12  6  0  0  0  0  0  0  0  0999 V2000
  363.8306  362.6438  371.6638 F   0  0  0  0  0  0  0  0  0  0  0  0
  364.2041  363.3683  371.0387 H   0  0  0  0  0  0  0  0  0  0  0  0
  362.3631  364.1887  368.6825 F   0  0  0  0  0  0  0  0  0  0  0  0
  362.7095  363.6500  369.4513 H   0  0  0  0  0  0  0  0  0  0  0  0
  364.1195  364.5337  366.1967 F   0  0  0  0  0  0  0  0  0  0  0  0
  364.5398  364.6931  367.0958 H   0  0  0  0  0  0  0  0  0  0  0  0
  364.2381  365.6845  369.6785 F   0  0  0  0  0  0  0  0  0  0  0  0
  364.1345  365.4208  368.7204 H   0  0  0  0  0  0  0  0  0  0  0  0
  365.9385  364.5618  369.3732 F   0  0  0  0  0  0  0  0  0  0  0  0
  364.9783  364.4544  369.1091 H   0  0  0  0  0  0  0  0  0  0  0  0
  365.2919  365.2884  369.5982 F   0  0  0  0  0  0  0  0  0  0  0  0
  365.0667  364.4865  370.1616 H   0  0  0  0  0  0  0  0  0  0  0  0
  1  2  1  0  0  0  0
  3  4  1  0  0  0  0
  5  6  1  0  0  0  0
  7  8  1  0  0  0  0
  9 10  1  0  0  0  0
 11 12  1  0  0  0  0
M  END
