
 OpenBabel11272015143D

 12  6  0  0  0  0  0  0  0  0999 V2000
  242.7081  242.8499  248.1293 F   0  0  0  0  0  0  0  0  0  0  0  0
  242.5432  242.4938  247.1966 H   0  0  0  0  0  0  0  0  0  0  0  0
  242.4480  239.2441  248.2733 F   0  0  0  0  0  0  0  0  0  0  0  0
  243.0358  240.1555  248.4180 H   0  0  0  0  0  0  0  0  0  0  0  0
  244.6956  241.9983  247.4027 F   0  0  0  0  0  0  0  0  0  0  0  0
  245.5185  242.2378  247.9172 H   0  0  0  0  0  0  0  0  0  0  0  0
  241.8190  240.8928  245.1731 F   0  0  0  0  0  0  0  0  0  0  0  0
  242.1057  239.9819  245.4714 H   0  0  0  0  0  0  0  0  0  0  0  0
  242.4494  242.2630  244.5249 F   0  0  0  0  0  0  0  0  0  0  0  0
  243.0264  242.0112  245.3070 H   0  0  0  0  0  0  0  0  0  0  0  0
  245.4779  240.8580  249.4178 F   0  0  0  0  0  0  0  0  0  0  0  0
  244.7466  241.5376  249.2770 H   0  0  0  0  0  0  0  0  0  0  0  0
  1  2  1  0  0  0  0
  3  4  1  0  0  0  0
  5  6  1  0  0  0  0
  7  8  1  0  0  0  0
  9 10  1  0  0  0  0
 11 12  1  0  0  0  0
M  END
