
 OpenBabel11272015193D

 12  6  0  0  0  0  0  0  0  0999 V2000
  481.5741  477.9256  481.5213 F   0  0  0  0  0  0  0  0  0  0  0  0
  481.2680  478.3451  480.6584 H   0  0  0  0  0  0  0  0  0  0  0  0
  480.8356  478.4220  478.0224 F   0  0  0  0  0  0  0  0  0  0  0  0
  480.9906  477.9844  478.9123 H   0  0  0  0  0  0  0  0  0  0  0  0
  480.1857  476.3418  480.8771 F   0  0  0  0  0  0  0  0  0  0  0  0
  480.2002  477.1986  480.3292 H   0  0  0  0  0  0  0  0  0  0  0  0
  480.4425  479.8028  479.7247 F   0  0  0  0  0  0  0  0  0  0  0  0
  479.7794  479.2318  480.2131 H   0  0  0  0  0  0  0  0  0  0  0  0
  479.9967  479.7911  483.3610 F   0  0  0  0  0  0  0  0  0  0  0  0
  480.2361  479.7166  482.3907 H   0  0  0  0  0  0  0  0  0  0  0  0
  480.2354  480.9732  483.1863 F   0  0  0  0  0  0  0  0  0  0  0  0
  480.2196  480.7363  482.2165 H   0  0  0  0  0  0  0  0  0  0  0  0
  1  2  1  0  0  0  0
  3  4  1  0  0  0  0
  5  6  1  0  0  0  0
  7  8  1  0  0  0  0
  9 10  1  0  0  0  0
 11 12  1  0  0  0  0
M  END
