
 OpenBabel11272015183D

 12  6  0  0  0  0  0  0  0  0999 V2000
  422.3009  418.1768  422.6363 F   0  0  0  0  0  0  0  0  0  0  0  0
  422.2531  418.5581  421.7154 H   0  0  0  0  0  0  0  0  0  0  0  0
  421.1196  419.3952  419.4621 F   0  0  0  0  0  0  0  0  0  0  0  0
  421.1338  418.9092  420.3474 H   0  0  0  0  0  0  0  0  0  0  0  0
  420.6231  419.0184  422.9996 F   0  0  0  0  0  0  0  0  0  0  0  0
  421.1357  418.9656  422.1311 H   0  0  0  0  0  0  0  0  0  0  0  0
  422.8136  418.2357  420.1740 F   0  0  0  0  0  0  0  0  0  0  0  0
  423.4936  417.9380  420.8449 H   0  0  0  0  0  0  0  0  0  0  0  0
  423.2452  416.0815  423.1183 F   0  0  0  0  0  0  0  0  0  0  0  0
  423.1717  416.6610  422.3076 H   0  0  0  0  0  0  0  0  0  0  0  0
  421.8014  417.3430  422.4123 F   0  0  0  0  0  0  0  0  0  0  0  0
  421.6619  416.6294  421.7280 H   0  0  0  0  0  0  0  0  0  0  0  0
  1  2  1  0  0  0  0
  3  4  1  0  0  0  0
  5  6  1  0  0  0  0
  7  8  1  0  0  0  0
  9 10  1  0  0  0  0
 11 12  1  0  0  0  0
M  END
