
 OpenBabel11272015123D

  8  4  0  0  0  0  0  0  0  0999 V2000
   30.0787   27.1443   28.7274 F   0  0  0  0  0  0  0  0  0  0  0  0
   29.6829   26.5729   29.4457 H   0  0  0  0  0  0  0  0  0  0  0  0
   28.5694   23.8183   28.5386 F   0  0  0  0  0  0  0  0  0  0  0  0
   28.9336   24.7474   28.4820 H   0  0  0  0  0  0  0  0  0  0  0  0
   30.4587   26.1100   30.6824 F   0  0  0  0  0  0  0  0  0  0  0  0
   30.0241   25.3835   30.1501 H   0  0  0  0  0  0  0  0  0  0  0  0
   27.7398   26.0953   31.2286 F   0  0  0  0  0  0  0  0  0  0  0  0
   28.2795   25.8621   30.3208 H   0  0  0  0  0  0  0  0  0  0  0  0
  1  2  1  0  0  0  0
  3  4  1  0  0  0  0
  5  6  1  0  0  0  0
  7  8  1  0  0  0  0
M  END
