
 OpenBabel11272015123D

  6  3  0  0  0  0  0  0  0  0999 V2000
    6.8337    3.7023    7.2700 F   0  0  0  0  0  0  0  0  0  0  0  0
    7.1273    4.4572    6.6738 H   0  0  0  0  0  0  0  0  0  0  0  0
    8.1826    6.8737    6.1873 F   0  0  0  0  0  0  0  0  0  0  0  0
    8.0837    5.9759    6.6143 H   0  0  0  0  0  0  0  0  0  0  0  0
    7.5050    6.1420    4.6255 F   0  0  0  0  0  0  0  0  0  0  0  0
    7.2014    5.1877    4.6253 H   0  0  0  0  0  0  0  0  0  0  0  0
  1  2  1  0  0  0  0
  3  4  1  0  0  0  0
  5  6  1  0  0  0  0
M  END
