
 OpenBabel11272015123D

 10  5  0  0  0  0  0  0  0  0999 V2000
   71.6665   67.3319   74.3444 F   0  0  0  0  0  0  0  0  0  0  0  0
   71.9902   66.8891   73.4960 H   0  0  0  0  0  0  0  0  0  0  0  0
   72.1537   64.7825   71.8475 F   0  0  0  0  0  0  0  0  0  0  0  0
   72.0973   65.2636   72.7214 H   0  0  0  0  0  0  0  0  0  0  0  0
   75.4367   63.8135   70.5184 F   0  0  0  0  0  0  0  0  0  0  0  0
   74.5123   63.9616   70.8770 H   0  0  0  0  0  0  0  0  0  0  0  0
   75.8062   65.0026   71.7125 F   0  0  0  0  0  0  0  0  0  0  0  0
   74.8126   65.0515   71.8211 H   0  0  0  0  0  0  0  0  0  0  0  0
   73.2480   66.3660   71.1881 F   0  0  0  0  0  0  0  0  0  0  0  0
   74.1196   66.2139   70.7189 H   0  0  0  0  0  0  0  0  0  0  0  0
  1  2  1  0  0  0  0
  3  4  1  0  0  0  0
  5  6  1  0  0  0  0
  7  8  1  0  0  0  0
  9 10  1  0  0  0  0
M  END
