
 OpenBabel11272015163D

 12  6  0  0  0  0  0  0  0  0999 V2000
  356.8318  355.0399  359.5494 F   0  0  0  0  0  0  0  0  0  0  0  0
  357.1313  355.7801  360.1526 H   0  0  0  0  0  0  0  0  0  0  0  0
  353.9125  356.5556  361.1543 F   0  0  0  0  0  0  0  0  0  0  0  0
  354.8118  356.1684  360.9002 H   0  0  0  0  0  0  0  0  0  0  0  0
  357.3341  355.2538  360.9915 F   0  0  0  0  0  0  0  0  0  0  0  0
  356.9809  356.0987  361.3981 H   0  0  0  0  0  0  0  0  0  0  0  0
  356.2583  358.1144  363.0096 F   0  0  0  0  0  0  0  0  0  0  0  0
  356.8086  358.8555  363.3859 H   0  0  0  0  0  0  0  0  0  0  0  0
  357.0833  358.7279  361.8944 F   0  0  0  0  0  0  0  0  0  0  0  0
  357.2384  357.8880  361.3763 H   0  0  0  0  0  0  0  0  0  0  0  0
  358.1946  356.8631  362.3431 F   0  0  0  0  0  0  0  0  0  0  0  0
  357.9190  356.1019  361.7526 H   0  0  0  0  0  0  0  0  0  0  0  0
  1  2  1  0  0  0  0
  3  4  1  0  0  0  0
  5  6  1  0  0  0  0
  7  8  1  0  0  0  0
  9 10  1  0  0  0  0
 11 12  1  0  0  0  0
M  END
