
 OpenBabel12072013203D

  8  5  0  0  0  0  0  0  0  0999 V2000
   24.9946   25.5889   24.1133 F   0  0  0  0  0  0  0  0  0  0  0  0
   25.6161   26.2604   24.5189 H   0  0  0  0  0  0  0  0  0  0  0  0
   23.9669   25.3038   26.5732 H   0  0  0  0  0  0  0  0  0  0  0  0
   23.5385   25.4717   27.4331 O   0  0  0  0  0  0  0  0  0  0  0  0
   22.6047   25.2200   27.4494 H   0  0  0  0  0  0  0  0  0  0  0  0
   23.6549   24.8416   25.3184 H   0  0  0  0  0  0  0  0  0  0  0  0
   24.0251   24.2904   24.6120 O   0  0  0  0  0  0  0  0  0  0  0  0
   23.7664   23.3598   24.6690 H   0  0  0  0  0  0  0  0  0  0  0  0
  1  2  1  0  0  0  0
  3  4  1  0  0  0  0
  4  5  1  0  0  0  0
  6  7  1  0  0  0  0
  7  8  1  0  0  0  0
M  END
