
 OpenBabel11272015203D

 12  6  0  0  0  0  0  0  0  0999 V2000
  551.0115  554.9658  550.7374 F   0  0  0  0  0  0  0  0  0  0  0  0
  550.1544  554.9487  551.2565 H   0  0  0  0  0  0  0  0  0  0  0  0
  548.0036  553.6933  552.2490 F   0  0  0  0  0  0  0  0  0  0  0  0
  548.9792  553.9614  552.1763 H   0  0  0  0  0  0  0  0  0  0  0  0
  551.0796  555.4436  552.9364 F   0  0  0  0  0  0  0  0  0  0  0  0
  550.1141  555.2047  552.8303 H   0  0  0  0  0  0  0  0  0  0  0  0
  547.4399  555.0979  552.7544 F   0  0  0  0  0  0  0  0  0  0  0  0
  547.9223  554.3061  553.1332 H   0  0  0  0  0  0  0  0  0  0  0  0
  549.3615  552.3575  554.2757 F   0  0  0  0  0  0  0  0  0  0  0  0
  550.3083  552.6394  554.4441 H   0  0  0  0  0  0  0  0  0  0  0  0
  551.6163  554.1677  552.6083 F   0  0  0  0  0  0  0  0  0  0  0  0
  551.3395  554.2981  553.5613 H   0  0  0  0  0  0  0  0  0  0  0  0
  1  2  1  0  0  0  0
  3  4  1  0  0  0  0
  5  6  1  0  0  0  0
  7  8  1  0  0  0  0
  9 10  1  0  0  0  0
 11 12  1  0  0  0  0
M  END
