
 OpenBabel11272015163D

 12  6  0  0  0  0  0  0  0  0999 V2000
  319.4686  321.3564  323.6495 F   0  0  0  0  0  0  0  0  0  0  0  0
  319.4464  320.5448  324.2328 H   0  0  0  0  0  0  0  0  0  0  0  0
  322.1321  318.9628  324.3736 F   0  0  0  0  0  0  0  0  0  0  0  0
  321.4365  319.5710  323.9857 H   0  0  0  0  0  0  0  0  0  0  0  0
  319.2766  320.7177  322.8906 F   0  0  0  0  0  0  0  0  0  0  0  0
  320.2723  320.6757  322.9775 H   0  0  0  0  0  0  0  0  0  0  0  0
  318.8545  318.6104  325.9903 F   0  0  0  0  0  0  0  0  0  0  0  0
  319.7264  318.8126  325.5441 H   0  0  0  0  0  0  0  0  0  0  0  0
  322.8520  319.9840  323.1797 F   0  0  0  0  0  0  0  0  0  0  0  0
  323.2572  319.5143  323.9648 H   0  0  0  0  0  0  0  0  0  0  0  0
  321.3372  321.5822  326.7385 F   0  0  0  0  0  0  0  0  0  0  0  0
  321.1514  321.0866  325.7835 H   0  0  0  0  0  0  0  0  0  0  0  0
  1  2  1  0  0  0  0
  3  4  1  0  0  0  0
  5  6  1  0  0  0  0
  7  8  1  0  0  0  0
  9 10  1  0  0  0  0
 11 12  1  0  0  0  0
M  END
