
 OpenBabel11272015193D

 12  6  0  0  0  0  0  0  0  0999 V2000
  522.2036  523.9955  522.6265 F   0  0  0  0  0  0  0  0  0  0  0  0
  522.0251  524.9654  522.1584 H   0  0  0  0  0  0  0  0  0  0  0  0
  519.0660  522.9596  521.1443 F   0  0  0  0  0  0  0  0  0  0  0  0
  519.6340  523.6514  521.7762 H   0  0  0  0  0  0  0  0  0  0  0  0
  521.6445  524.0454  523.5022 F   0  0  0  0  0  0  0  0  0  0  0  0
  521.9915  523.3309  524.1110 H   0  0  0  0  0  0  0  0  0  0  0  0
  521.1770  525.9327  519.7485 F   0  0  0  0  0  0  0  0  0  0  0  0
  521.4827  526.2789  520.6351 H   0  0  0  0  0  0  0  0  0  0  0  0
  522.1722  527.6071  522.8446 F   0  0  0  0  0  0  0  0  0  0  0  0
  522.1425  526.6127  522.9274 H   0  0  0  0  0  0  0  0  0  0  0  0
  519.1690  525.9585  523.1671 F   0  0  0  0  0  0  0  0  0  0  0  0
  520.0713  525.5198  523.1851 H   0  0  0  0  0  0  0  0  0  0  0  0
  1  2  1  0  0  0  0
  3  4  1  0  0  0  0
  5  6  1  0  0  0  0
  7  8  1  0  0  0  0
  9 10  1  0  0  0  0
 11 12  1  0  0  0  0
M  END
