
 OpenBabel11272015203D

 12  6  0  0  0  0  0  0  0  0999 V2000
  587.2953  591.9372  587.0108 F   0  0  0  0  0  0  0  0  0  0  0  0
  587.3447  592.1854  588.0693 H   0  0  0  0  0  0  0  0  0  0  0  0
  583.9263  593.3818  587.0201 F   0  0  0  0  0  0  0  0  0  0  0  0
  584.8279  592.9644  587.1803 H   0  0  0  0  0  0  0  0  0  0  0  0
  586.2145  590.6622  590.2033 F   0  0  0  0  0  0  0  0  0  0  0  0
  587.0637  591.1907  590.3034 H   0  0  0  0  0  0  0  0  0  0  0  0
  589.2743  592.6535  589.9396 F   0  0  0  0  0  0  0  0  0  0  0  0
  588.2819  592.7508  589.8197 H   0  0  0  0  0  0  0  0  0  0  0  0
  585.6322  592.5748  590.1560 F   0  0  0  0  0  0  0  0  0  0  0  0
  585.3399  592.7709  589.2123 H   0  0  0  0  0  0  0  0  0  0  0  0
  585.8302  591.6049  590.3048 F   0  0  0  0  0  0  0  0  0  0  0  0
  586.6773  591.8529  589.6681 H   0  0  0  0  0  0  0  0  0  0  0  0
  1  2  1  0  0  0  0
  3  4  1  0  0  0  0
  5  6  1  0  0  0  0
  7  8  1  0  0  0  0
  9 10  1  0  0  0  0
 11 12  1  0  0  0  0
M  END
