
 OpenBabel11272015223D

 12  6  0  0  0  0  0  0  0  0999 V2000
  659.2084  669.2291  664.8506 F   0  0  0  0  0  0  0  0  0  0  0  0
  659.7581  669.7246  664.0650 H   0  0  0  0  0  0  0  0  0  0  0  0
  659.2775  672.8141  665.5947 F   0  0  0  0  0  0  0  0  0  0  0  0
  659.4289  671.8376  665.4219 H   0  0  0  0  0  0  0  0  0  0  0  0
  659.4282  671.6897  662.2029 F   0  0  0  0  0  0  0  0  0  0  0  0
  660.0645  670.9907  662.5342 H   0  0  0  0  0  0  0  0  0  0  0  0
  659.0928  666.4384  662.4882 F   0  0  0  0  0  0  0  0  0  0  0  0
  659.0205  667.0783  663.2628 H   0  0  0  0  0  0  0  0  0  0  0  0
  662.2331  669.4754  662.9598 F   0  0  0  0  0  0  0  0  0  0  0  0
  661.2660  669.3153  663.1580 H   0  0  0  0  0  0  0  0  0  0  0  0
  661.0243  672.3585  664.7802 F   0  0  0  0  0  0  0  0  0  0  0  0
  660.9140  671.3242  664.4712 H   0  0  0  0  0  0  0  0  0  0  0  0
  1  2  1  0  0  0  0
  3  4  1  0  0  0  0
  5  6  1  0  0  0  0
  7  8  1  0  0  0  0
  9 10  1  0  0  0  0
 11 12  1  0  0  0  0
M  END
