
 OpenBabel11272015133D

 10  5  0  0  0  0  0  0  0  0999 V2000
  138.5689  132.7656  139.3586 F   0  0  0  0  0  0  0  0  0  0  0  0
  138.2067  131.7908  139.6723 H   0  0  0  0  0  0  0  0  0  0  0  0
  138.6105  129.2350  138.3999 F   0  0  0  0  0  0  0  0  0  0  0  0
  138.7684  130.2119  138.5776 H   0  0  0  0  0  0  0  0  0  0  0  0
  136.0329  130.1820  139.3421 F   0  0  0  0  0  0  0  0  0  0  0  0
  136.9504  129.9461  139.6678 H   0  0  0  0  0  0  0  0  0  0  0  0
  139.2166  129.6812  141.0699 F   0  0  0  0  0  0  0  0  0  0  0  0
  139.0535  130.3412  140.3413 H   0  0  0  0  0  0  0  0  0  0  0  0
  136.8843  130.2864  141.4529 F   0  0  0  0  0  0  0  0  0  0  0  0
  137.3317  130.1605  140.5656 H   0  0  0  0  0  0  0  0  0  0  0  0
  1  2  1  0  0  0  0
  3  4  1  0  0  0  0
  5  6  1  0  0  0  0
  7  8  1  0  0  0  0
  9 10  1  0  0  0  0
M  END
