
 OpenBabel11272015233D

 12  6  0  0  0  0  0  0  0  0999 V2000
  712.6198  726.6861  716.1862 F   0  0  0  0  0  0  0  0  0  0  0  0
  712.3177  726.4783  717.1473 H   0  0  0  0  0  0  0  0  0  0  0  0
  714.8347  729.5426  716.7606 F   0  0  0  0  0  0  0  0  0  0  0  0
  714.1293  728.8183  716.7925 H   0  0  0  0  0  0  0  0  0  0  0  0
  711.9943  727.3582  717.4911 F   0  0  0  0  0  0  0  0  0  0  0  0
  711.4367  727.4267  718.3178 H   0  0  0  0  0  0  0  0  0  0  0  0
  712.2553  725.1908  719.4999 F   0  0  0  0  0  0  0  0  0  0  0  0
  712.8162  725.1062  718.6747 H   0  0  0  0  0  0  0  0  0  0  0  0
  710.7972  726.6747  719.3525 F   0  0  0  0  0  0  0  0  0  0  0  0
  710.5256  725.8440  718.8493 H   0  0  0  0  0  0  0  0  0  0  0  0
  710.2641  723.9871  716.9260 F   0  0  0  0  0  0  0  0  0  0  0  0
  710.9845  724.6073  716.6056 H   0  0  0  0  0  0  0  0  0  0  0  0
  1  2  1  0  0  0  0
  3  4  1  0  0  0  0
  5  6  1  0  0  0  0
  7  8  1  0  0  0  0
  9 10  1  0  0  0  0
 11 12  1  0  0  0  0
M  END
