
 OpenBabel11272015163D

 12  6  0  0  0  0  0  0  0  0999 V2000
  328.4119  331.2413  335.7695 F   0  0  0  0  0  0  0  0  0  0  0  0
  329.3502  331.5916  335.6774 H   0  0  0  0  0  0  0  0  0  0  0  0
  331.1818  329.0059  335.1337 F   0  0  0  0  0  0  0  0  0  0  0  0
  330.4348  329.4233  335.7605 H   0  0  0  0  0  0  0  0  0  0  0  0
  331.1497  333.9913  331.4047 F   0  0  0  0  0  0  0  0  0  0  0  0
  331.3314  333.7717  332.3637 H   0  0  0  0  0  0  0  0  0  0  0  0
  331.7938  332.5893  336.1465 F   0  0  0  0  0  0  0  0  0  0  0  0
  331.2251  332.3384  336.9313 H   0  0  0  0  0  0  0  0  0  0  0  0
  331.6484  332.6237  334.7632 F   0  0  0  0  0  0  0  0  0  0  0  0
  331.6438  331.6272  334.8444 H   0  0  0  0  0  0  0  0  0  0  0  0
  329.6422  329.0247  338.3484 F   0  0  0  0  0  0  0  0  0  0  0  0
  329.6549  329.4229  337.3655 H   0  0  0  0  0  0  0  0  0  0  0  0
  1  2  1  0  0  0  0
  3  4  1  0  0  0  0
  5  6  1  0  0  0  0
  7  8  1  0  0  0  0
  9 10  1  0  0  0  0
 11 12  1  0  0  0  0
M  END
