
 OpenBabel11272015143D

 12  6  0  0  0  0  0  0  0  0999 V2000
  238.9732  240.4748  244.2151 F   0  0  0  0  0  0  0  0  0  0  0  0
  238.5773  239.6112  244.5301 H   0  0  0  0  0  0  0  0  0  0  0  0
  240.2655  237.5851  242.4029 F   0  0  0  0  0  0  0  0  0  0  0  0
  240.1756  238.4683  242.9073 H   0  0  0  0  0  0  0  0  0  0  0  0
  242.3362  237.5896  243.8407 F   0  0  0  0  0  0  0  0  0  0  0  0
  242.3101  238.1216  244.6857 H   0  0  0  0  0  0  0  0  0  0  0  0
  237.6522  237.1283  244.9272 F   0  0  0  0  0  0  0  0  0  0  0  0
  238.2427  237.1784  244.1160 H   0  0  0  0  0  0  0  0  0  0  0  0
  240.7584  240.9074  243.8610 F   0  0  0  0  0  0  0  0  0  0  0  0
  241.2454  240.0356  243.9229 H   0  0  0  0  0  0  0  0  0  0  0  0
  242.1282  238.9919  245.1633 F   0  0  0  0  0  0  0  0  0  0  0  0
  241.2572  239.0071  244.5126 H   0  0  0  0  0  0  0  0  0  0  0  0
  1  2  1  0  0  0  0
  3  4  1  0  0  0  0
  5  6  1  0  0  0  0
  7  8  1  0  0  0  0
  9 10  1  0  0  0  0
 11 12  1  0  0  0  0
M  END
