
 OpenBabel11272015243D

 12  6  0  0  0  0  0  0  0  0999 V2000
  763.6305  779.5483  770.9515 F   0  0  0  0  0  0  0  0  0  0  0  0
  763.6705  780.4705  770.5779 H   0  0  0  0  0  0  0  0  0  0  0  0
  765.6097  782.4299  772.0215 F   0  0  0  0  0  0  0  0  0  0  0  0
  765.1531  781.6098  771.6773 H   0  0  0  0  0  0  0  0  0  0  0  0
  762.4832  780.5234  771.3048 F   0  0  0  0  0  0  0  0  0  0  0  0
  762.8337  781.0245  770.5099 H   0  0  0  0  0  0  0  0  0  0  0  0
  766.8513  780.8886  769.9989 F   0  0  0  0  0  0  0  0  0  0  0  0
  765.9119  780.9914  770.5423 H   0  0  0  0  0  0  0  0  0  0  0  0
  764.3500  782.1681  768.6191 F   0  0  0  0  0  0  0  0  0  0  0  0
  764.4019  781.8426  769.6691 H   0  0  0  0  0  0  0  0  0  0  0  0
  764.7007  782.8085  772.1815 F   0  0  0  0  0  0  0  0  0  0  0  0
  764.2183  782.0006  771.8356 H   0  0  0  0  0  0  0  0  0  0  0  0
  1  2  1  0  0  0  0
  3  4  1  0  0  0  0
  5  6  1  0  0  0  0
  7  8  1  0  0  0  0
  9 10  1  0  0  0  0
 11 12  1  0  0  0  0
M  END
