
 OpenBabel12072013203D

  8  5  0  0  0  0  0  0  0  0999 V2000
   37.7528   39.9786   36.1328 F   0  0  0  0  0  0  0  0  0  0  0  0
   38.7150   39.8582   36.3925 H   0  0  0  0  0  0  0  0  0  0  0  0
   36.6143   38.2352   37.8263 H   0  0  0  0  0  0  0  0  0  0  0  0
   36.5013   37.5537   38.5220 O   0  0  0  0  0  0  0  0  0  0  0  0
   37.3560   37.2913   38.9171 H   0  0  0  0  0  0  0  0  0  0  0  0
   39.5156   37.5034   38.4470 H   0  0  0  0  0  0  0  0  0  0  0  0
   39.5213   37.1304   39.3393 O   0  0  0  0  0  0  0  0  0  0  0  0
   38.8058   37.4585   39.9025 H   0  0  0  0  0  0  0  0  0  0  0  0
  1  2  1  0  0  0  0
  3  4  1  0  0  0  0
  4  5  1  0  0  0  0
  6  7  1  0  0  0  0
  7  8  1  0  0  0  0
M  END
