
 OpenBabel11272015133D

 10  5  0  0  0  0  0  0  0  0999 V2000
  143.5283  136.9670  144.6427 F   0  0  0  0  0  0  0  0  0  0  0  0
  143.1758  136.0354  144.5642 H   0  0  0  0  0  0  0  0  0  0  0  0
  143.3518  133.4094  144.1093 F   0  0  0  0  0  0  0  0  0  0  0  0
  143.6651  134.2972  144.4646 H   0  0  0  0  0  0  0  0  0  0  0  0
  141.4208  136.1882  145.3860 F   0  0  0  0  0  0  0  0  0  0  0  0
  142.3862  135.7062  145.2291 H   0  0  0  0  0  0  0  0  0  0  0  0
  145.0158  136.2020  145.7796 F   0  0  0  0  0  0  0  0  0  0  0  0
  144.5731  135.3811  146.1404 H   0  0  0  0  0  0  0  0  0  0  0  0
  142.1681  133.5771  144.9053 F   0  0  0  0  0  0  0  0  0  0  0  0
  142.1428  133.0359  145.7468 H   0  0  0  0  0  0  0  0  0  0  0  0
  1  2  1  0  0  0  0
  3  4  1  0  0  0  0
  5  6  1  0  0  0  0
  7  8  1  0  0  0  0
  9 10  1  0  0  0  0
M  END
