
 OpenBabel11272015133D

 10  5  0  0  0  0  0  0  0  0999 V2000
  215.8872  207.2927  221.8594 F   0  0  0  0  0  0  0  0  0  0  0  0
  216.7969  206.8839  221.7863 H   0  0  0  0  0  0  0  0  0  0  0  0
  219.4733  206.9778  221.6986 F   0  0  0  0  0  0  0  0  0  0  0  0
  218.5533  207.1397  222.0550 H   0  0  0  0  0  0  0  0  0  0  0  0
  216.8519  211.1553  223.7414 F   0  0  0  0  0  0  0  0  0  0  0  0
  216.6636  210.9433  222.7824 H   0  0  0  0  0  0  0  0  0  0  0  0
  215.8319  210.5414  220.2700 F   0  0  0  0  0  0  0  0  0  0  0  0
  215.9117  209.9370  221.1753 H   0  0  0  0  0  0  0  0  0  0  0  0
  216.2354  210.3334  223.8584 F   0  0  0  0  0  0  0  0  0  0  0  0
  215.9893  209.5672  223.2649 H   0  0  0  0  0  0  0  0  0  0  0  0
  1  2  1  0  0  0  0
  3  4  1  0  0  0  0
  5  6  1  0  0  0  0
  7  8  1  0  0  0  0
  9 10  1  0  0  0  0
M  END
