
 OpenBabel11272015223D

 12  6  0  0  0  0  0  0  0  0999 V2000
  636.9205  645.6275  640.5571 F   0  0  0  0  0  0  0  0  0  0  0  0
  636.7485  646.5488  640.9032 H   0  0  0  0  0  0  0  0  0  0  0  0
  636.8018  648.4115  642.8259 F   0  0  0  0  0  0  0  0  0  0  0  0
  637.1870  647.7828  642.1316 H   0  0  0  0  0  0  0  0  0  0  0  0
  639.2681  646.3765  641.1774 F   0  0  0  0  0  0  0  0  0  0  0  0
  638.4425  646.5641  641.7451 H   0  0  0  0  0  0  0  0  0  0  0  0
  635.9332  646.3268  642.6734 F   0  0  0  0  0  0  0  0  0  0  0  0
  636.6786  646.5639  642.0427 H   0  0  0  0  0  0  0  0  0  0  0  0
  638.9104  647.2413  640.7226 F   0  0  0  0  0  0  0  0  0  0  0  0
  638.0337  647.6513  640.9699 H   0  0  0  0  0  0  0  0  0  0  0  0
  638.2967  646.7629  639.9169 F   0  0  0  0  0  0  0  0  0  0  0  0
  637.3153  646.7660  640.0892 H   0  0  0  0  0  0  0  0  0  0  0  0
  1  2  1  0  0  0  0
  3  4  1  0  0  0  0
  5  6  1  0  0  0  0
  7  8  1  0  0  0  0
  9 10  1  0  0  0  0
 11 12  1  0  0  0  0
M  END
