
 OpenBabel11272015183D

 12  6  0  0  0  0  0  0  0  0999 V2000
  446.0621  444.1502  447.4487 F   0  0  0  0  0  0  0  0  0  0  0  0
  446.3945  444.0516  446.4928 H   0  0  0  0  0  0  0  0  0  0  0  0
  443.6378  443.0307  444.9369 F   0  0  0  0  0  0  0  0  0  0  0  0
  444.3321  443.2060  445.6380 H   0  0  0  0  0  0  0  0  0  0  0  0
  445.6909  443.0556  447.4397 F   0  0  0  0  0  0  0  0  0  0  0  0
  446.6860  443.0306  447.5311 H   0  0  0  0  0  0  0  0  0  0  0  0
  447.7460  443.0418  444.4084 F   0  0  0  0  0  0  0  0  0  0  0  0
  447.0915  442.9005  445.1602 H   0  0  0  0  0  0  0  0  0  0  0  0
  446.8128  444.5220  443.8854 F   0  0  0  0  0  0  0  0  0  0  0  0
  445.8688  444.2726  444.1189 H   0  0  0  0  0  0  0  0  0  0  0  0
  446.5218  440.6201  446.8030 F   0  0  0  0  0  0  0  0  0  0  0  0
  446.6563  441.6587  446.4979 H   0  0  0  0  0  0  0  0  0  0  0  0
  1  2  1  0  0  0  0
  3  4  1  0  0  0  0
  5  6  1  0  0  0  0
  7  8  1  0  0  0  0
  9 10  1  0  0  0  0
 11 12  1  0  0  0  0
M  END
