
 OpenBabel11272015123D

  8  4  0  0  0  0  0  0  0  0999 V2000
   71.4943   64.2976   69.7859 F   0  0  0  0  0  0  0  0  0  0  0  0
   72.4795   64.1806   69.6864 H   0  0  0  0  0  0  0  0  0  0  0  0
   73.7667   61.5729   68.8873 F   0  0  0  0  0  0  0  0  0  0  0  0
   73.1654   62.3872   68.9290 H   0  0  0  0  0  0  0  0  0  0  0  0
   75.1303   64.1176   69.3221 F   0  0  0  0  0  0  0  0  0  0  0  0
   74.6042   64.3649   68.5069 H   0  0  0  0  0  0  0  0  0  0  0  0
   71.6458   64.4802   68.2152 F   0  0  0  0  0  0  0  0  0  0  0  0
   72.5937   64.3384   68.5025 H   0  0  0  0  0  0  0  0  0  0  0  0
  1  2  1  0  0  0  0
  3  4  1  0  0  0  0
  5  6  1  0  0  0  0
  7  8  1  0  0  0  0
M  END
