
 OpenBabel11272015123D

 10  5  0  0  0  0  0  0  0  0999 V2000
  110.0867  103.5000  112.8579 F   0  0  0  0  0  0  0  0  0  0  0  0
  110.6950  103.3708  112.0652 H   0  0  0  0  0  0  0  0  0  0  0  0
  111.1598  102.5070  109.5657 F   0  0  0  0  0  0  0  0  0  0  0  0
  111.0216  102.4397  110.5715 H   0  0  0  0  0  0  0  0  0  0  0  0
  111.0616  101.4776  113.0761 F   0  0  0  0  0  0  0  0  0  0  0  0
  111.3276  100.9874  113.9082 H   0  0  0  0  0  0  0  0  0  0  0  0
  109.1813  103.8619  111.0018 F   0  0  0  0  0  0  0  0  0  0  0  0
  109.6522  103.2098  111.5944 H   0  0  0  0  0  0  0  0  0  0  0  0
  112.6886  102.6432  110.4258 F   0  0  0  0  0  0  0  0  0  0  0  0
  112.5541  103.6103  110.2135 H   0  0  0  0  0  0  0  0  0  0  0  0
  1  2  1  0  0  0  0
  3  4  1  0  0  0  0
  5  6  1  0  0  0  0
  7  8  1  0  0  0  0
  9 10  1  0  0  0  0
M  END
