
 OpenBabel11272015133D

 10  5  0  0  0  0  0  0  0  0999 V2000
  180.4081  167.4144  181.5528 F   0  0  0  0  0  0  0  0  0  0  0  0
  180.4196  168.4154  181.7686 H   0  0  0  0  0  0  0  0  0  0  0  0
  177.7420  169.7327  182.3301 F   0  0  0  0  0  0  0  0  0  0  0  0
  178.3520  169.2141  181.5880 H   0  0  0  0  0  0  0  0  0  0  0  0
  181.2215  170.7354  182.8585 F   0  0  0  0  0  0  0  0  0  0  0  0
  180.2982  170.3284  182.8970 H   0  0  0  0  0  0  0  0  0  0  0  0
  178.5969  169.1198  178.8678 F   0  0  0  0  0  0  0  0  0  0  0  0
  178.9447  168.6230  179.6623 H   0  0  0  0  0  0  0  0  0  0  0  0
  179.5727  170.9614  181.8950 F   0  0  0  0  0  0  0  0  0  0  0  0
  179.2426  170.3823  181.1418 H   0  0  0  0  0  0  0  0  0  0  0  0
  1  2  1  0  0  0  0
  3  4  1  0  0  0  0
  5  6  1  0  0  0  0
  7  8  1  0  0  0  0
  9 10  1  0  0  0  0
M  END
