
 OpenBabel11272015143D

 12  6  0  0  0  0  0  0  0  0999 V2000
  215.1521  208.1598  219.6170 F   0  0  0  0  0  0  0  0  0  0  0  0
  214.3452  207.7890  219.1585 H   0  0  0  0  0  0  0  0  0  0  0  0
  215.5588  210.1672  216.6364 F   0  0  0  0  0  0  0  0  0  0  0  0
  214.9415  209.5115  217.2537 H   0  0  0  0  0  0  0  0  0  0  0  0
  212.1701  207.2324  217.7054 F   0  0  0  0  0  0  0  0  0  0  0  0
  212.3733  207.0588  216.7419 H   0  0  0  0  0  0  0  0  0  0  0  0
  211.6872  207.1787  218.9524 F   0  0  0  0  0  0  0  0  0  0  0  0
  212.5960  207.4182  219.3030 H   0  0  0  0  0  0  0  0  0  0  0  0
  212.4420  208.4141  217.1793 F   0  0  0  0  0  0  0  0  0  0  0  0
  213.1616  208.5356  217.8677 H   0  0  0  0  0  0  0  0  0  0  0  0
  214.7949  207.0174  216.1505 F   0  0  0  0  0  0  0  0  0  0  0  0
  214.7984  207.2639  217.1205 H   0  0  0  0  0  0  0  0  0  0  0  0
  1  2  1  0  0  0  0
  3  4  1  0  0  0  0
  5  6  1  0  0  0  0
  7  8  1  0  0  0  0
  9 10  1  0  0  0  0
 11 12  1  0  0  0  0
M  END
