
 OpenBabel11272015223D

 12  6  0  0  0  0  0  0  0  0999 V2000
  654.0178  665.0144  659.6322 F   0  0  0  0  0  0  0  0  0  0  0  0
  654.6332  664.6121  658.9367 H   0  0  0  0  0  0  0  0  0  0  0  0
  654.6194  667.7458  661.9556 F   0  0  0  0  0  0  0  0  0  0  0  0
  654.9660  667.0181  661.1912 H   0  0  0  0  0  0  0  0  0  0  0  0
  654.4728  664.4884  660.3484 F   0  0  0  0  0  0  0  0  0  0  0  0
  655.3541  664.0787  660.1108 H   0  0  0  0  0  0  0  0  0  0  0  0
  655.5629  663.3572  656.7572 F   0  0  0  0  0  0  0  0  0  0  0  0
  654.5658  663.2648  656.7750 H   0  0  0  0  0  0  0  0  0  0  0  0
  656.8182  663.7799  657.6294 F   0  0  0  0  0  0  0  0  0  0  0  0
  656.1566  664.1206  658.3003 H   0  0  0  0  0  0  0  0  0  0  0  0
  657.1932  666.7714  659.6148 F   0  0  0  0  0  0  0  0  0  0  0  0
  656.5660  665.8947  659.3537 H   0  0  0  0  0  0  0  0  0  0  0  0
  1  2  1  0  0  0  0
  3  4  1  0  0  0  0
  5  6  1  0  0  0  0
  7  8  1  0  0  0  0
  9 10  1  0  0  0  0
 11 12  1  0  0  0  0
M  END
