
 OpenBabel11272015163D

 12  6  0  0  0  0  0  0  0  0999 V2000
  317.3910  318.3455  319.5108 F   0  0  0  0  0  0  0  0  0  0  0  0
  317.2420  318.2895  320.4956 H   0  0  0  0  0  0  0  0  0  0  0  0
  319.6362  316.1861  321.4304 F   0  0  0  0  0  0  0  0  0  0  0  0
  318.8373  316.7129  321.0705 H   0  0  0  0  0  0  0  0  0  0  0  0
  316.3107  317.5911  320.8290 F   0  0  0  0  0  0  0  0  0  0  0  0
  317.1745  317.7273  321.3198 H   0  0  0  0  0  0  0  0  0  0  0  0
  317.1641  318.2495  323.1725 F   0  0  0  0  0  0  0  0  0  0  0  0
  317.8904  317.6498  322.8375 H   0  0  0  0  0  0  0  0  0  0  0  0
  319.6272  317.7780  322.3879 F   0  0  0  0  0  0  0  0  0  0  0  0
  319.4828  317.3985  321.4761 H   0  0  0  0  0  0  0  0  0  0  0  0
  318.5689  319.9634  322.5919 F   0  0  0  0  0  0  0  0  0  0  0  0
  318.3148  319.5470  321.7189 H   0  0  0  0  0  0  0  0  0  0  0  0
  1  2  1  0  0  0  0
  3  4  1  0  0  0  0
  5  6  1  0  0  0  0
  7  8  1  0  0  0  0
  9 10  1  0  0  0  0
 11 12  1  0  0  0  0
M  END
