
 OpenBabel12072013203D

  7  4  0  0  0  0  0  0  0  0999 V2000
   16.8035   13.2595   17.2441 F   0  0  0  0  0  0  0  0  0  0  0  0
   16.6766   14.1188   16.6043 H   0  0  0  0  0  0  0  0  0  0  0  0
   15.5801   13.9549   12.3171 F   0  0  0  0  0  0  0  0  0  0  0  0
   14.8066   14.2688   11.7653 H   0  0  0  0  0  0  0  0  0  0  0  0
   16.9038   15.4240   15.7192 H   0  0  0  0  0  0  0  0  0  0  0  0
   16.1648   15.9052   15.3197 O   0  0  0  0  0  0  0  0  0  0  0  0
   15.8197   15.4705   14.5144 H   0  0  0  0  0  0  0  0  0  0  0  0
  1  2  1  0  0  0  0
  3  4  1  0  0  0  0
  5  6  1  0  0  0  0
  6  7  1  0  0  0  0
M  END
