
 OpenBabel11272015233D

 12  6  0  0  0  0  0  0  0  0999 V2000
  735.5727  752.1458  739.5556 F   0  0  0  0  0  0  0  0  0  0  0  0
  735.4966  751.2961  740.0784 H   0  0  0  0  0  0  0  0  0  0  0  0
  734.1457  751.4994  742.8635 F   0  0  0  0  0  0  0  0  0  0  0  0
  734.6663  751.6011  742.0160 H   0  0  0  0  0  0  0  0  0  0  0  0
  736.4201  747.8283  743.4342 F   0  0  0  0  0  0  0  0  0  0  0  0
  735.8999  748.1960  742.6627 H   0  0  0  0  0  0  0  0  0  0  0  0
  738.2167  754.6491  739.0768 F   0  0  0  0  0  0  0  0  0  0  0  0
  737.4827  753.9908  739.2420 H   0  0  0  0  0  0  0  0  0  0  0  0
  734.5600  748.8250  740.4347 F   0  0  0  0  0  0  0  0  0  0  0  0
  734.5588  749.8919  740.7225 H   0  0  0  0  0  0  0  0  0  0  0  0
  733.2892  751.6297  742.3683 F   0  0  0  0  0  0  0  0  0  0  0  0
  733.8265  751.9248  741.5761 H   0  0  0  0  0  0  0  0  0  0  0  0
  1  2  1  0  0  0  0
  3  4  1  0  0  0  0
  5  6  1  0  0  0  0
  7  8  1  0  0  0  0
  9 10  1  0  0  0  0
 11 12  1  0  0  0  0
M  END
