
 OpenBabel11272015133D

 10  5  0  0  0  0  0  0  0  0999 V2000
  134.9340  124.9177  136.3101 F   0  0  0  0  0  0  0  0  0  0  0  0
  134.0426  125.3787  136.4134 H   0  0  0  0  0  0  0  0  0  0  0  0
  133.6669  125.8139  132.9819 F   0  0  0  0  0  0  0  0  0  0  0  0
  134.0444  125.6441  133.8970 H   0  0  0  0  0  0  0  0  0  0  0  0
  131.6884  126.5739  135.9681 F   0  0  0  0  0  0  0  0  0  0  0  0
  132.1832  126.1651  135.1876 H   0  0  0  0  0  0  0  0  0  0  0  0
  132.9944  124.5337  133.2253 F   0  0  0  0  0  0  0  0  0  0  0  0
  133.5542  124.5617  134.0504 H   0  0  0  0  0  0  0  0  0  0  0  0
  131.6690  126.2733  137.2780 F   0  0  0  0  0  0  0  0  0  0  0  0
  132.3011  125.7275  137.8238 H   0  0  0  0  0  0  0  0  0  0  0  0
  1  2  1  0  0  0  0
  3  4  1  0  0  0  0
  5  6  1  0  0  0  0
  7  8  1  0  0  0  0
  9 10  1  0  0  0  0
M  END
