
 OpenBabel11272015153D

 12  6  0  0  0  0  0  0  0  0999 V2000
  297.0650  295.1040  299.5260 F   0  0  0  0  0  0  0  0  0  0  0  0
  296.2181  294.9540  300.0468 H   0  0  0  0  0  0  0  0  0  0  0  0
  296.5606  291.6828  300.6789 F   0  0  0  0  0  0  0  0  0  0  0  0
  296.2221  292.7403  300.5317 H   0  0  0  0  0  0  0  0  0  0  0  0
  296.6616  294.7148  298.7035 F   0  0  0  0  0  0  0  0  0  0  0  0
  295.7971  294.6279  299.2026 H   0  0  0  0  0  0  0  0  0  0  0  0
  293.7613  294.2897  300.8916 F   0  0  0  0  0  0  0  0  0  0  0  0
  293.9143  293.3045  300.9719 H   0  0  0  0  0  0  0  0  0  0  0  0
  294.2826  294.2682  301.7390 F   0  0  0  0  0  0  0  0  0  0  0  0
  294.4862  295.1574  301.3256 H   0  0  0  0  0  0  0  0  0  0  0  0
  297.5827  291.6157  298.5474 F   0  0  0  0  0  0  0  0  0  0  0  0
  297.5630  292.5940  298.7548 H   0  0  0  0  0  0  0  0  0  0  0  0
  1  2  1  0  0  0  0
  3  4  1  0  0  0  0
  5  6  1  0  0  0  0
  7  8  1  0  0  0  0
  9 10  1  0  0  0  0
 11 12  1  0  0  0  0
M  END
