
 OpenBabel12072013203D

  8  5  0  0  0  0  0  0  0  0999 V2000
   49.4726   51.7581   51.5841 F   0  0  0  0  0  0  0  0  0  0  0  0
   50.3459   51.4530   51.1778 H   0  0  0  0  0  0  0  0  0  0  0  0
   51.4173   51.6543   53.4659 H   0  0  0  0  0  0  0  0  0  0  0  0
   52.3996   51.4203   53.6440 O   0  0  0  0  0  0  0  0  0  0  0  0
   52.7375   51.1918   52.7143 H   0  0  0  0  0  0  0  0  0  0  0  0
   52.3180   51.6198   51.3899 H   0  0  0  0  0  0  0  0  0  0  0  0
   52.3754   50.7205   50.6999 O   0  0  0  0  0  0  0  0  0  0  0  0
   52.5913   50.2294   51.7060 H   0  0  0  0  0  0  0  0  0  0  0  0
  1  2  1  0  0  0  0
  3  4  1  0  0  0  0
  4  5  1  0  0  0  0
  6  7  1  0  0  0  0
  7  8  1  0  0  0  0
M  END
