
 OpenBabel12072013203D

  8  5  0  0  0  0  0  0  0  0999 V2000
   43.8280   46.6195   46.6715 F   0  0  0  0  0  0  0  0  0  0  0  0
   44.8093   46.8395   46.6366 H   0  0  0  0  0  0  0  0  0  0  0  0
   45.1580   44.6424   45.3959 H   0  0  0  0  0  0  0  0  0  0  0  0
   46.0504   44.2677   45.0859 O   0  0  0  0  0  0  0  0  0  0  0  0
   46.7267   44.9026   45.4921 H   0  0  0  0  0  0  0  0  0  0  0  0
   46.5505   46.0195   46.2803 H   0  0  0  0  0  0  0  0  0  0  0  0
   47.0172   46.7753   46.6335 O   0  0  0  0  0  0  0  0  0  0  0  0
   47.9537   46.8206   46.3953 H   0  0  0  0  0  0  0  0  0  0  0  0
  1  2  1  0  0  0  0
  3  4  1  0  0  0  0
  4  5  1  0  0  0  0
  6  7  1  0  0  0  0
  7  8  1  0  0  0  0
M  END
