
 OpenBabel11272015123D

 10  5  0  0  0  0  0  0  0  0999 V2000
   88.5156   78.3347   88.9981 F   0  0  0  0  0  0  0  0  0  0  0  0
   88.3025   78.8152   88.0764 H   0  0  0  0  0  0  0  0  0  0  0  0
   86.5089   78.4068   86.0516 F   0  0  0  0  0  0  0  0  0  0  0  0
   87.2915   78.8561   86.6080 H   0  0  0  0  0  0  0  0  0  0  0  0
   89.8681   79.6078   86.8805 F   0  0  0  0  0  0  0  0  0  0  0  0
   88.9175   79.3331   86.7355 H   0  0  0  0  0  0  0  0  0  0  0  0
   88.3013   80.5540   88.4190 F   0  0  0  0  0  0  0  0  0  0  0  0
   88.6840   80.0304   89.1805 H   0  0  0  0  0  0  0  0  0  0  0  0
   89.1226   80.8674   86.4893 F   0  0  0  0  0  0  0  0  0  0  0  0
   89.3867   80.0292   86.0094 H   0  0  0  0  0  0  0  0  0  0  0  0
  1  2  1  0  0  0  0
  3  4  1  0  0  0  0
  5  6  1  0  0  0  0
  7  8  1  0  0  0  0
  9 10  1  0  0  0  0
M  END
