
 OpenBabel11272015123D

  8  4  0  0  0  0  0  0  0  0999 V2000
   25.0333   22.0748   23.3318 F   0  0  0  0  0  0  0  0  0  0  0  0
   24.0552   21.8460   23.2819 H   0  0  0  0  0  0  0  0  0  0  0  0
   22.3587   19.5763   23.4034 F   0  0  0  0  0  0  0  0  0  0  0  0
   22.9417   20.3984   23.3530 H   0  0  0  0  0  0  0  0  0  0  0  0
   24.5749   20.4248   26.2011 F   0  0  0  0  0  0  0  0  0  0  0  0
   23.8794   20.1711   25.5279 H   0  0  0  0  0  0  0  0  0  0  0  0
   21.9368   20.4432   24.1590 F   0  0  0  0  0  0  0  0  0  0  0  0
   22.6734   21.1271   24.1804 H   0  0  0  0  0  0  0  0  0  0  0  0
  1  2  1  0  0  0  0
  3  4  1  0  0  0  0
  5  6  1  0  0  0  0
  7  8  1  0  0  0  0
M  END
