
 OpenBabel11272015123D

  8  4  0  0  0  0  0  0  0  0999 V2000
   62.9531   57.5363   61.8355 F   0  0  0  0  0  0  0  0  0  0  0  0
   63.9179   57.5104   61.5796 H   0  0  0  0  0  0  0  0  0  0  0  0
   64.2624   54.1223   61.4537 F   0  0  0  0  0  0  0  0  0  0  0  0
   63.9348   55.0624   61.5298 H   0  0  0  0  0  0  0  0  0  0  0  0
   62.9175   56.9663   59.5836 F   0  0  0  0  0  0  0  0  0  0  0  0
   63.1842   56.2467   60.2324 H   0  0  0  0  0  0  0  0  0  0  0  0
   66.1233   58.5044   60.4316 F   0  0  0  0  0  0  0  0  0  0  0  0
   65.1679   58.1465   60.4496 H   0  0  0  0  0  0  0  0  0  0  0  0
  1  2  1  0  0  0  0
  3  4  1  0  0  0  0
  5  6  1  0  0  0  0
  7  8  1  0  0  0  0
M  END
