
 OpenBabel11272015243D

 12  6  0  0  0  0  0  0  0  0999 V2000
  777.3988  794.1813  785.9043 F   0  0  0  0  0  0  0  0  0  0  0  0
  777.7453  794.4404  785.0011 H   0  0  0  0  0  0  0  0  0  0  0  0
  775.1548  795.1859  783.1950 F   0  0  0  0  0  0  0  0  0  0  0  0
  775.6583  794.8664  783.9973 H   0  0  0  0  0  0  0  0  0  0  0  0
  774.1195  796.6563  784.5500 F   0  0  0  0  0  0  0  0  0  0  0  0
  774.1938  795.7561  784.1117 H   0  0  0  0  0  0  0  0  0  0  0  0
  778.7707  795.6458  782.8386 F   0  0  0  0  0  0  0  0  0  0  0  0
  777.8155  795.4582  783.0777 H   0  0  0  0  0  0  0  0  0  0  0  0
  775.4805  793.4508  783.6520 F   0  0  0  0  0  0  0  0  0  0  0  0
  774.9884  794.1418  784.2084 H   0  0  0  0  0  0  0  0  0  0  0  0
  773.9037  794.8434  786.5685 F   0  0  0  0  0  0  0  0  0  0  0  0
  774.7323  794.7678  785.8645 H   0  0  0  0  0  0  0  0  0  0  0  0
  1  2  1  0  0  0  0
  3  4  1  0  0  0  0
  5  6  1  0  0  0  0
  7  8  1  0  0  0  0
  9 10  1  0  0  0  0
 11 12  1  0  0  0  0
M  END
