
 OpenBabel11272015243D

 12  6  0  0  0  0  0  0  0  0999 V2000
  774.5719  793.0796  783.6865 F   0  0  0  0  0  0  0  0  0  0  0  0
  773.8019  792.7508  782.9998 H   0  0  0  0  0  0  0  0  0  0  0  0
  773.5549  792.6829  780.1927 F   0  0  0  0  0  0  0  0  0  0  0  0
  773.9853  792.7381  781.0940 H   0  0  0  0  0  0  0  0  0  0  0  0
  771.2826  793.4391  782.2192 F   0  0  0  0  0  0  0  0  0  0  0  0
  771.9915  792.8570  781.8258 H   0  0  0  0  0  0  0  0  0  0  0  0
  775.4001  793.1097  780.1159 F   0  0  0  0  0  0  0  0  0  0  0  0
  775.2607  793.0113  781.1026 H   0  0  0  0  0  0  0  0  0  0  0  0
  773.5846  790.8313  781.0968 F   0  0  0  0  0  0  0  0  0  0  0  0
  773.4369  791.2586  782.0457 H   0  0  0  0  0  0  0  0  0  0  0  0
  771.8922  790.7116  784.2338 F   0  0  0  0  0  0  0  0  0  0  0  0
  772.6624  791.1455  783.6519 H   0  0  0  0  0  0  0  0  0  0  0  0
  1  2  1  0  0  0  0
  3  4  1  0  0  0  0
  5  6  1  0  0  0  0
  7  8  1  0  0  0  0
  9 10  1  0  0  0  0
 11 12  1  0  0  0  0
M  END
