
 OpenBabel12072016593D

  8  5  0  0  0  0  0  0  0  0999 V2000
   19.6240   14.8851   14.3546 F   0  0  0  0  0  0  0  0  0  0  0  0
   18.7549   15.0883   14.8061 H   0  0  0  0  0  0  0  0  0  0  0  0
   19.4807   15.7017   16.8973 H   0  0  0  0  0  0  0  0  0  0  0  0
   19.4261   16.1530   17.7509 O   0  0  0  0  0  0  0  0  0  0  0  0
   19.7606   17.0593   17.7393 H   0  0  0  0  0  0  0  0  0  0  0  0
   17.7888   16.1777   16.2687 H   0  0  0  0  0  0  0  0  0  0  0  0
   16.9829   15.9949   15.7577 O   0  0  0  0  0  0  0  0  0  0  0  0
   16.5597   15.1559   15.9929 H   0  0  0  0  0  0  0  0  0  0  0  0
  1  2  1  0  0  0  0
  3  4  1  0  0  0  0
  4  5  1  0  0  0  0
  6  7  1  0  0  0  0
  7  8  1  0  0  0  0
M  END
