
 OpenBabel11272015183D

 12  6  0  0  0  0  0  0  0  0999 V2000
  454.9584  451.7082  455.7354 F   0  0  0  0  0  0  0  0  0  0  0  0
  455.0888  451.5585  454.7306 H   0  0  0  0  0  0  0  0  0  0  0  0
  451.8397  453.5367  456.3034 F   0  0  0  0  0  0  0  0  0  0  0  0
  452.7526  453.2172  456.0143 H   0  0  0  0  0  0  0  0  0  0  0  0
  454.8833  452.5161  454.5477 F   0  0  0  0  0  0  0  0  0  0  0  0
  453.9172  452.5829  454.2901 H   0  0  0  0  0  0  0  0  0  0  0  0
  455.4580  450.1734  452.4664 F   0  0  0  0  0  0  0  0  0  0  0  0
  454.5753  449.8345  452.7980 H   0  0  0  0  0  0  0  0  0  0  0  0
  455.4943  452.1783  452.1482 F   0  0  0  0  0  0  0  0  0  0  0  0
  455.3293  451.5540  451.3828 H   0  0  0  0  0  0  0  0  0  0  0  0
  452.1945  450.0994  454.0310 F   0  0  0  0  0  0  0  0  0  0  0  0
  453.2371  450.4520  454.0397 H   0  0  0  0  0  0  0  0  0  0  0  0
  1  2  1  0  0  0  0
  3  4  1  0  0  0  0
  5  6  1  0  0  0  0
  7  8  1  0  0  0  0
  9 10  1  0  0  0  0
 11 12  1  0  0  0  0
M  END
