
 OpenBabel11272015123D

  6  3  0  0  0  0  0  0  0  0999 V2000
    9.7545    6.5295   11.5864 F   0  0  0  0  0  0  0  0  0  0  0  0
    9.5994    6.7511   10.6227 H   0  0  0  0  0  0  0  0  0  0  0  0
   10.8951    8.0752    8.4685 F   0  0  0  0  0  0  0  0  0  0  0  0
   10.7091    7.6769    9.3717 H   0  0  0  0  0  0  0  0  0  0  0  0
    8.3347    7.8600    5.8596 F   0  0  0  0  0  0  0  0  0  0  0  0
    9.1047    8.0814    6.4743 H   0  0  0  0  0  0  0  0  0  0  0  0
  1  2  1  0  0  0  0
  3  4  1  0  0  0  0
  5  6  1  0  0  0  0
M  END
