
 OpenBabel11272015173D

 12  6  0  0  0  0  0  0  0  0999 V2000
  400.0552  396.5110  404.1732 F   0  0  0  0  0  0  0  0  0  0  0  0
  400.4284  396.6141  403.1567 H   0  0  0  0  0  0  0  0  0  0  0  0
  402.6164  394.6483  402.4271 F   0  0  0  0  0  0  0  0  0  0  0  0
  402.1321  395.5837  402.6580 H   0  0  0  0  0  0  0  0  0  0  0  0
  400.7063  397.8021  402.3891 F   0  0  0  0  0  0  0  0  0  0  0  0
  401.2444  396.9924  402.6249 H   0  0  0  0  0  0  0  0  0  0  0  0
  400.0266  395.4892  400.7025 F   0  0  0  0  0  0  0  0  0  0  0  0
  400.1756  395.7778  401.6480 H   0  0  0  0  0  0  0  0  0  0  0  0
  402.2174  398.1891  401.8281 F   0  0  0  0  0  0  0  0  0  0  0  0
  401.5634  397.4388  401.7122 H   0  0  0  0  0  0  0  0  0  0  0  0
  397.1785  398.4658  403.0549 F   0  0  0  0  0  0  0  0  0  0  0  0
  398.1318  398.0668  403.1197 H   0  0  0  0  0  0  0  0  0  0  0  0
  1  2  1  0  0  0  0
  3  4  1  0  0  0  0
  5  6  1  0  0  0  0
  7  8  1  0  0  0  0
  9 10  1  0  0  0  0
 11 12  1  0  0  0  0
M  END
