
 OpenBabel11272015203D

 12  6  0  0  0  0  0  0  0  0999 V2000
  559.5984  566.9727  562.0988 F   0  0  0  0  0  0  0  0  0  0  0  0
  559.2192  566.8697  563.0201 H   0  0  0  0  0  0  0  0  0  0  0  0
  559.6619  563.8507  564.0024 F   0  0  0  0  0  0  0  0  0  0  0  0
  559.7858  564.7255  563.5311 H   0  0  0  0  0  0  0  0  0  0  0  0
  558.6861  568.7104  562.2611 F   0  0  0  0  0  0  0  0  0  0  0  0
  558.2924  568.1253  562.9719 H   0  0  0  0  0  0  0  0  0  0  0  0
  558.6794  563.5873  562.9858 F   0  0  0  0  0  0  0  0  0  0  0  0
  558.5873  564.6594  563.1326 H   0  0  0  0  0  0  0  0  0  0  0  0
  557.1986  566.4121  564.6959 F   0  0  0  0  0  0  0  0  0  0  0  0
  558.0508  566.0498  564.1342 H   0  0  0  0  0  0  0  0  0  0  0  0
  562.6637  565.4861  563.4432 F   0  0  0  0  0  0  0  0  0  0  0  0
  561.8403  565.9014  563.0549 H   0  0  0  0  0  0  0  0  0  0  0  0
  1  2  1  0  0  0  0
  3  4  1  0  0  0  0
  5  6  1  0  0  0  0
  7  8  1  0  0  0  0
  9 10  1  0  0  0  0
 11 12  1  0  0  0  0
M  END
