
 OpenBabel11272015203D

 12  6  0  0  0  0  0  0  0  0999 V2000
  539.1921  541.4598  541.4717 F   0  0  0  0  0  0  0  0  0  0  0  0
  538.8187  542.4469  541.3191 H   0  0  0  0  0  0  0  0  0  0  0  0
  539.3407  544.5070  539.6153 F   0  0  0  0  0  0  0  0  0  0  0  0
  538.7911  543.8962  540.2890 H   0  0  0  0  0  0  0  0  0  0  0  0
  537.4946  542.1480  540.7048 F   0  0  0  0  0  0  0  0  0  0  0  0
  537.7212  542.4054  539.7653 H   0  0  0  0  0  0  0  0  0  0  0  0
  539.8925  544.9088  540.8651 F   0  0  0  0  0  0  0  0  0  0  0  0
  539.1778  544.1822  541.1639 H   0  0  0  0  0  0  0  0  0  0  0  0
  536.5619  543.8864  541.8482 F   0  0  0  0  0  0  0  0  0  0  0  0
  537.4297  544.3608  541.9971 H   0  0  0  0  0  0  0  0  0  0  0  0
  535.9038  543.6591  543.6551 F   0  0  0  0  0  0  0  0  0  0  0  0
  536.3637  543.2620  542.8610 H   0  0  0  0  0  0  0  0  0  0  0  0
  1  2  1  0  0  0  0
  3  4  1  0  0  0  0
  5  6  1  0  0  0  0
  7  8  1  0  0  0  0
  9 10  1  0  0  0  0
 11 12  1  0  0  0  0
M  END
