
 OpenBabel11272015203D

 12  6  0  0  0  0  0  0  0  0999 V2000
  576.6769  584.4802  580.5214 F   0  0  0  0  0  0  0  0  0  0  0  0
  577.5483  584.3092  580.9837 H   0  0  0  0  0  0  0  0  0  0  0  0
  580.0144  585.2599  579.2731 F   0  0  0  0  0  0  0  0  0  0  0  0
  579.1885  585.1021  579.8279 H   0  0  0  0  0  0  0  0  0  0  0  0
  578.7483  581.8576  581.5919 F   0  0  0  0  0  0  0  0  0  0  0  0
  578.5682  582.4221  580.7856 H   0  0  0  0  0  0  0  0  0  0  0  0
  579.1225  584.4627  579.0591 F   0  0  0  0  0  0  0  0  0  0  0  0
  579.0987  583.9348  579.9300 H   0  0  0  0  0  0  0  0  0  0  0  0
  579.6164  583.6238  582.5267 F   0  0  0  0  0  0  0  0  0  0  0  0
  579.5738  584.1333  581.6624 H   0  0  0  0  0  0  0  0  0  0  0  0
  579.5217  582.7061  581.7907 F   0  0  0  0  0  0  0  0  0  0  0  0
  579.1258  583.4405  581.1026 H   0  0  0  0  0  0  0  0  0  0  0  0
  1  2  1  0  0  0  0
  3  4  1  0  0  0  0
  5  6  1  0  0  0  0
  7  8  1  0  0  0  0
  9 10  1  0  0  0  0
 11 12  1  0  0  0  0
M  END
