
 OpenBabel11272015153D

 12  6  0  0  0  0  0  0  0  0999 V2000
  279.6818  278.7319  283.5117 F   0  0  0  0  0  0  0  0  0  0  0  0
  280.2555  278.5716  284.3122 H   0  0  0  0  0  0  0  0  0  0  0  0
  279.0549  276.2039  286.0831 F   0  0  0  0  0  0  0  0  0  0  0  0
  279.0869  276.9864  285.4540 H   0  0  0  0  0  0  0  0  0  0  0  0
  279.5431  279.3555  284.2920 F   0  0  0  0  0  0  0  0  0  0  0  0
  279.3435  280.2772  284.6211 H   0  0  0  0  0  0  0  0  0  0  0  0
  281.6359  278.7441  286.6065 F   0  0  0  0  0  0  0  0  0  0  0  0
  281.0687  277.9494  286.3685 H   0  0  0  0  0  0  0  0  0  0  0  0
  276.2756  278.3241  285.5962 F   0  0  0  0  0  0  0  0  0  0  0  0
  277.1559  278.7068  285.3022 H   0  0  0  0  0  0  0  0  0  0  0  0
  282.3844  277.5253  285.6247 F   0  0  0  0  0  0  0  0  0  0  0  0
  281.3033  277.5998  285.3713 H   0  0  0  0  0  0  0  0  0  0  0  0
  1  2  1  0  0  0  0
  3  4  1  0  0  0  0
  5  6  1  0  0  0  0
  7  8  1  0  0  0  0
  9 10  1  0  0  0  0
 11 12  1  0  0  0  0
M  END
