
 OpenBabel11272015123D

 10  5  0  0  0  0  0  0  0  0999 V2000
  115.2549  108.5203  116.3804 F   0  0  0  0  0  0  0  0  0  0  0  0
  116.0787  107.9323  116.3008 H   0  0  0  0  0  0  0  0  0  0  0  0
  117.6856  106.0741  117.3935 F   0  0  0  0  0  0  0  0  0  0  0  0
  116.8896  106.4517  116.8970 H   0  0  0  0  0  0  0  0  0  0  0  0
  114.9623  108.2788  118.4476 F   0  0  0  0  0  0  0  0  0  0  0  0
  115.7863  107.7165  118.3304 H   0  0  0  0  0  0  0  0  0  0  0  0
  115.2204  107.2056  114.9388 F   0  0  0  0  0  0  0  0  0  0  0  0
  115.2297  107.5102  115.8942 H   0  0  0  0  0  0  0  0  0  0  0  0
  117.7717  106.0471  115.4187 F   0  0  0  0  0  0  0  0  0  0  0  0
  117.7918  106.5593  114.5575 H   0  0  0  0  0  0  0  0  0  0  0  0
  1  2  1  0  0  0  0
  3  4  1  0  0  0  0
  5  6  1  0  0  0  0
  7  8  1  0  0  0  0
  9 10  1  0  0  0  0
M  END
