
 OpenBabel11272015223D

 12  6  0  0  0  0  0  0  0  0999 V2000
  648.8121  657.8589  650.3131 F   0  0  0  0  0  0  0  0  0  0  0  0
  648.1978  657.0771  650.4569 H   0  0  0  0  0  0  0  0  0  0  0  0
  646.5775  657.8662  653.2051 F   0  0  0  0  0  0  0  0  0  0  0  0
  647.2739  657.9064  652.4890 H   0  0  0  0  0  0  0  0  0  0  0  0
  648.8300  660.3600  651.6024 F   0  0  0  0  0  0  0  0  0  0  0  0
  648.0535  660.5941  651.0183 H   0  0  0  0  0  0  0  0  0  0  0  0
  647.0573  654.7949  651.2782 F   0  0  0  0  0  0  0  0  0  0  0  0
  647.0705  655.7089  651.7009 H   0  0  0  0  0  0  0  0  0  0  0  0
  648.6390  656.7044  651.4291 F   0  0  0  0  0  0  0  0  0  0  0  0
  648.8242  657.6896  651.3758 H   0  0  0  0  0  0  0  0  0  0  0  0
  649.7284  659.6375  653.3295 F   0  0  0  0  0  0  0  0  0  0  0  0
  649.0375  658.9804  652.7916 H   0  0  0  0  0  0  0  0  0  0  0  0
  1  2  1  0  0  0  0
  3  4  1  0  0  0  0
  5  6  1  0  0  0  0
  7  8  1  0  0  0  0
  9 10  1  0  0  0  0
 11 12  1  0  0  0  0
M  END
