
 OpenBabel11272015243D

 12  6  0  0  0  0  0  0  0  0999 V2000
  753.9300  769.0362  758.8615 F   0  0  0  0  0  0  0  0  0  0  0  0
  754.8010  769.2548  759.4601 H   0  0  0  0  0  0  0  0  0  0  0  0
  755.5058  768.9744  762.0756 F   0  0  0  0  0  0  0  0  0  0  0  0
  755.1617  769.3697  761.2175 H   0  0  0  0  0  0  0  0  0  0  0  0
  757.3336  770.2280  759.1667 F   0  0  0  0  0  0  0  0  0  0  0  0
  756.9426  769.7863  759.9738 H   0  0  0  0  0  0  0  0  0  0  0  0
  756.6079  768.0216  761.0404 F   0  0  0  0  0  0  0  0  0  0  0  0
  756.1604  768.3633  760.2002 H   0  0  0  0  0  0  0  0  0  0  0  0
  754.7212  770.0348  758.6577 F   0  0  0  0  0  0  0  0  0  0  0  0
  754.3015  770.3602  759.5097 H   0  0  0  0  0  0  0  0  0  0  0  0
  753.2238  770.5696  761.9542 F   0  0  0  0  0  0  0  0  0  0  0  0
  752.4726  769.9573  761.7092 H   0  0  0  0  0  0  0  0  0  0  0  0
  1  2  1  0  0  0  0
  3  4  1  0  0  0  0
  5  6  1  0  0  0  0
  7  8  1  0  0  0  0
  9 10  1  0  0  0  0
 11 12  1  0  0  0  0
M  END
