
 OpenBabel11272015193D

 12  6  0  0  0  0  0  0  0  0999 V2000
  520.4386  521.8792  519.8540 F   0  0  0  0  0  0  0  0  0  0  0  0
  520.0257  522.4930  519.1825 H   0  0  0  0  0  0  0  0  0  0  0  0
  517.0557  521.2126  518.6546 F   0  0  0  0  0  0  0  0  0  0  0  0
  517.8636  521.5428  519.1724 H   0  0  0  0  0  0  0  0  0  0  0  0
  518.8515  519.4017  520.0253 F   0  0  0  0  0  0  0  0  0  0  0  0
  518.3665  520.0400  519.4283 H   0  0  0  0  0  0  0  0  0  0  0  0
  518.7194  524.2679  517.6651 F   0  0  0  0  0  0  0  0  0  0  0  0
  518.5305  523.4971  518.4133 H   0  0  0  0  0  0  0  0  0  0  0  0
  519.2730  522.9304  520.9807 F   0  0  0  0  0  0  0  0  0  0  0  0
  519.1536  521.9706  520.7059 H   0  0  0  0  0  0  0  0  0  0  0  0
  517.9972  524.5436  519.7088 F   0  0  0  0  0  0  0  0  0  0  0  0
  518.2549  523.4941  519.5539 H   0  0  0  0  0  0  0  0  0  0  0  0
  1  2  1  0  0  0  0
  3  4  1  0  0  0  0
  5  6  1  0  0  0  0
  7  8  1  0  0  0  0
  9 10  1  0  0  0  0
 11 12  1  0  0  0  0
M  END
