
 OpenBabel11272015153D

 12  6  0  0  0  0  0  0  0  0999 V2000
  282.2672  282.0167  287.8589 F   0  0  0  0  0  0  0  0  0  0  0  0
  282.8837  282.4109  287.1773 H   0  0  0  0  0  0  0  0  0  0  0  0
  280.3426  278.9706  288.1724 F   0  0  0  0  0  0  0  0  0  0  0  0
  280.4056  280.0572  288.2501 H   0  0  0  0  0  0  0  0  0  0  0  0
  281.7702  281.7397  286.8569 F   0  0  0  0  0  0  0  0  0  0  0  0
  280.9090  282.2486  286.8684 H   0  0  0  0  0  0  0  0  0  0  0  0
  284.6864  280.0889  289.8168 F   0  0  0  0  0  0  0  0  0  0  0  0
  283.9236  280.4997  289.3198 H   0  0  0  0  0  0  0  0  0  0  0  0
  278.7767  282.1419  288.9322 F   0  0  0  0  0  0  0  0  0  0  0  0
  279.6629  281.9914  288.4907 H   0  0  0  0  0  0  0  0  0  0  0  0
  285.0990  280.3450  286.2489 F   0  0  0  0  0  0  0  0  0  0  0  0
  284.2313  280.7228  286.5782 H   0  0  0  0  0  0  0  0  0  0  0  0
  1  2  1  0  0  0  0
  3  4  1  0  0  0  0
  5  6  1  0  0  0  0
  7  8  1  0  0  0  0
  9 10  1  0  0  0  0
 11 12  1  0  0  0  0
M  END
