
 OpenBabel11272015173D

 12  6  0  0  0  0  0  0  0  0999 V2000
  407.1564  405.5886  408.3091 F   0  0  0  0  0  0  0  0  0  0  0  0
  406.6981  405.4543  409.1870 H   0  0  0  0  0  0  0  0  0  0  0  0
  408.9663  402.4108  408.4883 F   0  0  0  0  0  0  0  0  0  0  0  0
  408.6822  403.3872  408.4788 H   0  0  0  0  0  0  0  0  0  0  0  0
  408.5228  405.9850  409.1263 F   0  0  0  0  0  0  0  0  0  0  0  0
  408.4761  405.9147  408.1247 H   0  0  0  0  0  0  0  0  0  0  0  0
  409.5512  404.5474  409.3908 F   0  0  0  0  0  0  0  0  0  0  0  0
  409.7605  404.2557  410.3203 H   0  0  0  0  0  0  0  0  0  0  0  0
  406.1328  403.2397  409.5063 F   0  0  0  0  0  0  0  0  0  0  0  0
  406.9642  403.8279  409.4387 H   0  0  0  0  0  0  0  0  0  0  0  0
  405.8282  406.2131  411.6012 F   0  0  0  0  0  0  0  0  0  0  0  0
  406.4591  406.1921  410.8228 H   0  0  0  0  0  0  0  0  0  0  0  0
  1  2  1  0  0  0  0
  3  4  1  0  0  0  0
  5  6  1  0  0  0  0
  7  8  1  0  0  0  0
  9 10  1  0  0  0  0
 11 12  1  0  0  0  0
M  END
