
 OpenBabel11272015193D

 12  6  0  0  0  0  0  0  0  0999 V2000
  483.1253  480.3623  484.6092 F   0  0  0  0  0  0  0  0  0  0  0  0
  482.6372  481.2655  484.2485 H   0  0  0  0  0  0  0  0  0  0  0  0
  483.6108  481.9996  481.3710 F   0  0  0  0  0  0  0  0  0  0  0  0
  483.4027  481.3756  482.1420 H   0  0  0  0  0  0  0  0  0  0  0  0
  482.0570  479.8180  483.8646 F   0  0  0  0  0  0  0  0  0  0  0  0
  481.9292  480.7230  483.4572 H   0  0  0  0  0  0  0  0  0  0  0  0
  482.7138  482.8386  482.0182 F   0  0  0  0  0  0  0  0  0  0  0  0
  482.5416  481.8775  482.2283 H   0  0  0  0  0  0  0  0  0  0  0  0
  480.7290  483.0277  485.0875 F   0  0  0  0  0  0  0  0  0  0  0  0
  481.2329  483.0431  484.2273 H   0  0  0  0  0  0  0  0  0  0  0  0
  483.6148  483.8626  485.3707 F   0  0  0  0  0  0  0  0  0  0  0  0
  483.3717  483.0804  484.6566 H   0  0  0  0  0  0  0  0  0  0  0  0
  1  2  1  0  0  0  0
  3  4  1  0  0  0  0
  5  6  1  0  0  0  0
  7  8  1  0  0  0  0
  9 10  1  0  0  0  0
 11 12  1  0  0  0  0
M  END
