
 OpenBabel11272015193D

 12  6  0  0  0  0  0  0  0  0999 V2000
  477.5550  472.8090  474.0940 F   0  0  0  0  0  0  0  0  0  0  0  0
  476.7135  473.3084  474.5654 H   0  0  0  0  0  0  0  0  0  0  0  0
  475.1077  475.4710  473.5071 F   0  0  0  0  0  0  0  0  0  0  0  0
  475.8889  474.8436  473.6028 H   0  0  0  0  0  0  0  0  0  0  0  0
  475.9314  471.8549  476.3884 F   0  0  0  0  0  0  0  0  0  0  0  0
  475.5138  472.3636  475.6177 H   0  0  0  0  0  0  0  0  0  0  0  0
  474.1280  473.9134  473.9319 F   0  0  0  0  0  0  0  0  0  0  0  0
  474.7737  474.0932  474.6731 H   0  0  0  0  0  0  0  0  0  0  0  0
  476.1344  474.5886  476.9045 F   0  0  0  0  0  0  0  0  0  0  0  0
  475.7202  474.6061  475.9732 H   0  0  0  0  0  0  0  0  0  0  0  0
  475.7934  473.6761  477.1369 F   0  0  0  0  0  0  0  0  0  0  0  0
  475.8141  473.5772  476.0508 H   0  0  0  0  0  0  0  0  0  0  0  0
  1  2  1  0  0  0  0
  3  4  1  0  0  0  0
  5  6  1  0  0  0  0
  7  8  1  0  0  0  0
  9 10  1  0  0  0  0
 11 12  1  0  0  0  0
M  END
