
 OpenBabel11272015173D

 12  6  0  0  0  0  0  0  0  0999 V2000
  383.6493  383.9115  385.3734 F   0  0  0  0  0  0  0  0  0  0  0  0
  383.9932  383.6225  386.2680 H   0  0  0  0  0  0  0  0  0  0  0  0
  380.8178  381.9851  386.5441 F   0  0  0  0  0  0  0  0  0  0  0  0
  381.8749  382.2399  386.6015 H   0  0  0  0  0  0  0  0  0  0  0  0
  384.6090  384.1976  385.5953 F   0  0  0  0  0  0  0  0  0  0  0  0
  385.2742  383.4782  385.7957 H   0  0  0  0  0  0  0  0  0  0  0  0
  385.5441  384.8271  388.3609 F   0  0  0  0  0  0  0  0  0  0  0  0
  385.0654  384.7599  387.4846 H   0  0  0  0  0  0  0  0  0  0  0  0
  384.0777  381.5337  388.0488 F   0  0  0  0  0  0  0  0  0  0  0  0
  384.2586  382.5275  387.6442 H   0  0  0  0  0  0  0  0  0  0  0  0
  387.2492  383.7589  386.0187 F   0  0  0  0  0  0  0  0  0  0  0  0
  386.2914  383.6695  385.7465 H   0  0  0  0  0  0  0  0  0  0  0  0
  1  2  1  0  0  0  0
  3  4  1  0  0  0  0
  5  6  1  0  0  0  0
  7  8  1  0  0  0  0
  9 10  1  0  0  0  0
 11 12  1  0  0  0  0
M  END
