
 OpenBabel11272015133D

 10  5  0  0  0  0  0  0  0  0999 V2000
  170.0663  159.5429  174.1947 F   0  0  0  0  0  0  0  0  0  0  0  0
  170.5419  160.4775  173.9240 H   0  0  0  0  0  0  0  0  0  0  0  0
  171.3628  162.7105  175.5143 F   0  0  0  0  0  0  0  0  0  0  0  0
  171.0715  161.8343  175.1308 H   0  0  0  0  0  0  0  0  0  0  0  0
  172.6333  162.1407  173.8897 F   0  0  0  0  0  0  0  0  0  0  0  0
  172.8173  162.6270  173.0356 H   0  0  0  0  0  0  0  0  0  0  0  0
  170.2657  163.0988  174.6079 F   0  0  0  0  0  0  0  0  0  0  0  0
  170.1391  162.2176  174.1543 H   0  0  0  0  0  0  0  0  0  0  0  0
  172.5346  161.3965  172.3032 F   0  0  0  0  0  0  0  0  0  0  0  0
  172.0547  161.8070  173.0879 H   0  0  0  0  0  0  0  0  0  0  0  0
  1  2  1  0  0  0  0
  3  4  1  0  0  0  0
  5  6  1  0  0  0  0
  7  8  1  0  0  0  0
  9 10  1  0  0  0  0
M  END
