
 OpenBabel11272015173D

 12  6  0  0  0  0  0  0  0  0999 V2000
  388.6724  389.4731  392.7064 F   0  0  0  0  0  0  0  0  0  0  0  0
  389.1368  388.6751  393.2770 H   0  0  0  0  0  0  0  0  0  0  0  0
  388.5673  386.2447  394.2812 F   0  0  0  0  0  0  0  0  0  0  0  0
  388.9321  386.9320  393.6058 H   0  0  0  0  0  0  0  0  0  0  0  0
  390.8357  388.0772  392.0835 F   0  0  0  0  0  0  0  0  0  0  0  0
  391.4960  388.6439  391.5875 H   0  0  0  0  0  0  0  0  0  0  0  0
  391.5925  387.5015  393.3564 F   0  0  0  0  0  0  0  0  0  0  0  0
  390.8274  388.1269  393.5583 H   0  0  0  0  0  0  0  0  0  0  0  0
  388.4879  386.8065  395.1544 F   0  0  0  0  0  0  0  0  0  0  0  0
  389.3354  386.7919  394.6149 H   0  0  0  0  0  0  0  0  0  0  0  0
  391.6925  389.7231  388.9055 F   0  0  0  0  0  0  0  0  0  0  0  0
  391.4305  389.2795  389.7635 H   0  0  0  0  0  0  0  0  0  0  0  0
  1  2  1  0  0  0  0
  3  4  1  0  0  0  0
  5  6  1  0  0  0  0
  7  8  1  0  0  0  0
  9 10  1  0  0  0  0
 11 12  1  0  0  0  0
M  END
