
 OpenBabel11272015133D

 10  5  0  0  0  0  0  0  0  0999 V2000
  183.7458  171.1540  183.6928 F   0  0  0  0  0  0  0  0  0  0  0  0
  182.7732  170.9261  183.7164 H   0  0  0  0  0  0  0  0  0  0  0  0
  180.2620  171.1570  184.6011 F   0  0  0  0  0  0  0  0  0  0  0  0
  181.1333  171.5772  184.1151 H   0  0  0  0  0  0  0  0  0  0  0  0
  183.1008  173.2020  185.6787 F   0  0  0  0  0  0  0  0  0  0  0  0
  182.4235  172.6183  185.2216 H   0  0  0  0  0  0  0  0  0  0  0  0
  182.0212  171.8103  181.5515 F   0  0  0  0  0  0  0  0  0  0  0  0
  181.5202  172.0061  182.4010 H   0  0  0  0  0  0  0  0  0  0  0  0
  183.3648  173.0215  184.7291 F   0  0  0  0  0  0  0  0  0  0  0  0
  183.0655  172.7932  183.8055 H   0  0  0  0  0  0  0  0  0  0  0  0
  1  2  1  0  0  0  0
  3  4  1  0  0  0  0
  5  6  1  0  0  0  0
  7  8  1  0  0  0  0
  9 10  1  0  0  0  0
M  END
