
 OpenBabel11272015203D

 12  6  0  0  0  0  0  0  0  0999 V2000
  574.5157  581.7082  579.9678 F   0  0  0  0  0  0  0  0  0  0  0  0
  575.1745  581.5275  579.1168 H   0  0  0  0  0  0  0  0  0  0  0  0
  575.8648  583.5151  577.0828 F   0  0  0  0  0  0  0  0  0  0  0  0
  575.3910  583.0389  577.8230 H   0  0  0  0  0  0  0  0  0  0  0  0
  574.5003  580.8021  578.9048 F   0  0  0  0  0  0  0  0  0  0  0  0
  575.3196  580.5580  579.4230 H   0  0  0  0  0  0  0  0  0  0  0  0
  575.0315  581.5744  576.3901 F   0  0  0  0  0  0  0  0  0  0  0  0
  575.6776  581.4572  577.1440 H   0  0  0  0  0  0  0  0  0  0  0  0
  577.7777  580.8272  578.6803 F   0  0  0  0  0  0  0  0  0  0  0  0
  577.2835  581.6300  578.3525 H   0  0  0  0  0  0  0  0  0  0  0  0
  577.7948  580.1260  580.3512 F   0  0  0  0  0  0  0  0  0  0  0  0
  576.9535  580.6019  580.0914 H   0  0  0  0  0  0  0  0  0  0  0  0
  1  2  1  0  0  0  0
  3  4  1  0  0  0  0
  5  6  1  0  0  0  0
  7  8  1  0  0  0  0
  9 10  1  0  0  0  0
 11 12  1  0  0  0  0
M  END
