
 OpenBabel11272015183D

 12  6  0  0  0  0  0  0  0  0999 V2000
  437.8882  434.5556  438.9228 F   0  0  0  0  0  0  0  0  0  0  0  0
  438.6550  434.9645  438.2629 H   0  0  0  0  0  0  0  0  0  0  0  0
  438.4964  436.9632  436.2340 F   0  0  0  0  0  0  0  0  0  0  0  0
  438.1939  436.4128  437.0144 H   0  0  0  0  0  0  0  0  0  0  0  0
  437.9547  433.7419  437.0078 F   0  0  0  0  0  0  0  0  0  0  0  0
  437.8831  432.9107  437.5572 H   0  0  0  0  0  0  0  0  0  0  0  0
  439.5001  437.4118  437.3942 F   0  0  0  0  0  0  0  0  0  0  0  0
  440.2737  436.8213  437.6302 H   0  0  0  0  0  0  0  0  0  0  0  0
  440.6452  434.0276  436.6428 F   0  0  0  0  0  0  0  0  0  0  0  0
  440.1470  434.9043  436.7048 H   0  0  0  0  0  0  0  0  0  0  0  0
  437.7289  430.9141  439.3351 F   0  0  0  0  0  0  0  0  0  0  0  0
  437.7491  431.8892  439.1232 H   0  0  0  0  0  0  0  0  0  0  0  0
  1  2  1  0  0  0  0
  3  4  1  0  0  0  0
  5  6  1  0  0  0  0
  7  8  1  0  0  0  0
  9 10  1  0  0  0  0
 11 12  1  0  0  0  0
M  END
