
 OpenBabel11272015183D

 12  6  0  0  0  0  0  0  0  0999 V2000
  429.2523  425.8601  431.0968 F   0  0  0  0  0  0  0  0  0  0  0  0
  429.6591  425.1569  430.5124 H   0  0  0  0  0  0  0  0  0  0  0  0
  429.7945  428.2534  428.3811 F   0  0  0  0  0  0  0  0  0  0  0  0
  429.8343  427.6408  429.1813 H   0  0  0  0  0  0  0  0  0  0  0  0
  430.6445  425.9775  431.1190 F   0  0  0  0  0  0  0  0  0  0  0  0
  431.0094  426.4195  430.2988 H   0  0  0  0  0  0  0  0  0  0  0  0
  432.5606  427.3580  428.3295 F   0  0  0  0  0  0  0  0  0  0  0  0
  433.1146  427.1159  427.5348 H   0  0  0  0  0  0  0  0  0  0  0  0
  434.2395  426.3225  431.3612 F   0  0  0  0  0  0  0  0  0  0  0  0
  433.3157  426.4313  430.7881 H   0  0  0  0  0  0  0  0  0  0  0  0
  430.0028  423.9289  428.1526 F   0  0  0  0  0  0  0  0  0  0  0  0
  430.0916  424.6424  428.8591 H   0  0  0  0  0  0  0  0  0  0  0  0
  1  2  1  0  0  0  0
  3  4  1  0  0  0  0
  5  6  1  0  0  0  0
  7  8  1  0  0  0  0
  9 10  1  0  0  0  0
 11 12  1  0  0  0  0
M  END
