
 OpenBabel11272015243D

 12  6  0  0  0  0  0  0  0  0999 V2000
  769.6218  785.3482  778.0305 F   0  0  0  0  0  0  0  0  0  0  0  0
  769.4737  786.2201  777.5490 H   0  0  0  0  0  0  0  0  0  0  0  0
  768.9036  787.6113  775.3243 F   0  0  0  0  0  0  0  0  0  0  0  0
  768.8349  786.8536  775.9821 H   0  0  0  0  0  0  0  0  0  0  0  0
  768.7417  788.6914  776.8203 F   0  0  0  0  0  0  0  0  0  0  0  0
  768.5044  788.4264  777.7539 H   0  0  0  0  0  0  0  0  0  0  0  0
  770.4382  787.9906  775.7410 F   0  0  0  0  0  0  0  0  0  0  0  0
  769.6944  787.3250  776.1710 H   0  0  0  0  0  0  0  0  0  0  0  0
  767.7686  785.5830  775.3250 F   0  0  0  0  0  0  0  0  0  0  0  0
  768.0802  785.9678  776.1891 H   0  0  0  0  0  0  0  0  0  0  0  0
  768.6718  786.7951  778.6559 F   0  0  0  0  0  0  0  0  0  0  0  0
  768.9400  787.7554  778.7533 H   0  0  0  0  0  0  0  0  0  0  0  0
  1  2  1  0  0  0  0
  3  4  1  0  0  0  0
  5  6  1  0  0  0  0
  7  8  1  0  0  0  0
  9 10  1  0  0  0  0
 11 12  1  0  0  0  0
M  END
