
 OpenBabel11272015233D

 12  6  0  0  0  0  0  0  0  0999 V2000
  742.3746  756.6288  747.5284 F   0  0  0  0  0  0  0  0  0  0  0  0
  741.7729  756.4070  746.7326 H   0  0  0  0  0  0  0  0  0  0  0  0
  738.7560  756.6960  747.5064 F   0  0  0  0  0  0  0  0  0  0  0  0
  739.6956  756.3002  747.1273 H   0  0  0  0  0  0  0  0  0  0  0  0
  742.2037  754.7876  748.5626 F   0  0  0  0  0  0  0  0  0  0  0  0
  741.7269  754.6601  747.6950 H   0  0  0  0  0  0  0  0  0  0  0  0
  739.9659  757.1612  744.9028 F   0  0  0  0  0  0  0  0  0  0  0  0
  740.7307  757.2617  745.5355 H   0  0  0  0  0  0  0  0  0  0  0  0
  740.5697  754.4850  745.2867 F   0  0  0  0  0  0  0  0  0  0  0  0
  740.6792  755.1730  746.0368 H   0  0  0  0  0  0  0  0  0  0  0  0
  740.0290  757.2351  747.6287 F   0  0  0  0  0  0  0  0  0  0  0  0
  739.4628  757.8759  748.1458 H   0  0  0  0  0  0  0  0  0  0  0  0
  1  2  1  0  0  0  0
  3  4  1  0  0  0  0
  5  6  1  0  0  0  0
  7  8  1  0  0  0  0
  9 10  1  0  0  0  0
 11 12  1  0  0  0  0
M  END
