
 OpenBabel11272015153D

 12  6  0  0  0  0  0  0  0  0999 V2000
  272.9211  273.9259  279.5628 F   0  0  0  0  0  0  0  0  0  0  0  0
  273.8745  273.6472  279.7162 H   0  0  0  0  0  0  0  0  0  0  0  0
  273.8456  271.0375  277.5202 F   0  0  0  0  0  0  0  0  0  0  0  0
  273.7696  271.8823  278.0523 H   0  0  0  0  0  0  0  0  0  0  0  0
  273.1634  273.3919  278.5627 F   0  0  0  0  0  0  0  0  0  0  0  0
  274.1513  273.4284  278.7195 H   0  0  0  0  0  0  0  0  0  0  0  0
  276.2468  272.4328  279.9063 F   0  0  0  0  0  0  0  0  0  0  0  0
  275.5061  272.0433  279.3626 H   0  0  0  0  0  0  0  0  0  0  0  0
  271.9426  271.2649  281.2871 F   0  0  0  0  0  0  0  0  0  0  0  0
  272.1646  271.9641  280.5989 H   0  0  0  0  0  0  0  0  0  0  0  0
  274.3466  270.9920  281.1026 F   0  0  0  0  0  0  0  0  0  0  0  0
  274.0051  271.4962  280.2099 H   0  0  0  0  0  0  0  0  0  0  0  0
  1  2  1  0  0  0  0
  3  4  1  0  0  0  0
  5  6  1  0  0  0  0
  7  8  1  0  0  0  0
  9 10  1  0  0  0  0
 11 12  1  0  0  0  0
M  END
