
 OpenBabel11272015193D

 12  6  0  0  0  0  0  0  0  0999 V2000
  507.8264  507.4747  507.4410 F   0  0  0  0  0  0  0  0  0  0  0  0
  506.9650  507.9235  506.9357 H   0  0  0  0  0  0  0  0  0  0  0  0
  505.1689  506.5242  505.1091 F   0  0  0  0  0  0  0  0  0  0  0  0
  506.0289  506.7444  505.5922 H   0  0  0  0  0  0  0  0  0  0  0  0
  504.9086  505.5260  507.0079 F   0  0  0  0  0  0  0  0  0  0  0  0
  505.2541  505.9630  506.1879 H   0  0  0  0  0  0  0  0  0  0  0  0
  506.1032  508.3241  504.3771 F   0  0  0  0  0  0  0  0  0  0  0  0
  505.6130  508.7005  505.1700 H   0  0  0  0  0  0  0  0  0  0  0  0
  504.6072  509.1157  507.6216 F   0  0  0  0  0  0  0  0  0  0  0  0
  504.7169  508.1991  507.1636 H   0  0  0  0  0  0  0  0  0  0  0  0
  504.1701  507.4176  507.5664 F   0  0  0  0  0  0  0  0  0  0  0  0
  505.1529  507.3272  507.4001 H   0  0  0  0  0  0  0  0  0  0  0  0
  1  2  1  0  0  0  0
  3  4  1  0  0  0  0
  5  6  1  0  0  0  0
  7  8  1  0  0  0  0
  9 10  1  0  0  0  0
 11 12  1  0  0  0  0
M  END
