
 OpenBabel11272015123D

  8  4  0  0  0  0  0  0  0  0999 V2000
   22.1506   18.3251   20.4574 F   0  0  0  0  0  0  0  0  0  0  0  0
   21.7706   18.4254   21.4661 H   0  0  0  0  0  0  0  0  0  0  0  0
   19.3145   18.5015   22.6413 F   0  0  0  0  0  0  0  0  0  0  0  0
   20.1783   18.1673   22.2643 H   0  0  0  0  0  0  0  0  0  0  0  0
   22.6969   18.7233   24.0141 F   0  0  0  0  0  0  0  0  0  0  0  0
   21.7852   18.5453   23.6458 H   0  0  0  0  0  0  0  0  0  0  0  0
   18.7490   16.9266   20.4508 F   0  0  0  0  0  0  0  0  0  0  0  0
   19.6710   17.3115   20.4053 H   0  0  0  0  0  0  0  0  0  0  0  0
  1  2  1  0  0  0  0
  3  4  1  0  0  0  0
  5  6  1  0  0  0  0
  7  8  1  0  0  0  0
M  END
