
 OpenBabel11272015133D

 10  5  0  0  0  0  0  0  0  0999 V2000
  161.7661  152.7866  166.8163 F   0  0  0  0  0  0  0  0  0  0  0  0
  162.2626  153.6556  166.8344 H   0  0  0  0  0  0  0  0  0  0  0  0
  165.3467  152.0735  166.4950 F   0  0  0  0  0  0  0  0  0  0  0  0
  164.3964  152.3172  166.6915 H   0  0  0  0  0  0  0  0  0  0  0  0
  163.6737  155.8502  167.4435 F   0  0  0  0  0  0  0  0  0  0  0  0
  164.3782  155.7272  166.7331 H   0  0  0  0  0  0  0  0  0  0  0  0
  162.3872  156.2265  164.0303 F   0  0  0  0  0  0  0  0  0  0  0  0
  162.6472  156.1080  164.9887 H   0  0  0  0  0  0  0  0  0  0  0  0
  165.6570  155.1088  164.4582 F   0  0  0  0  0  0  0  0  0  0  0  0
  165.6152  154.2431  164.9569 H   0  0  0  0  0  0  0  0  0  0  0  0
  1  2  1  0  0  0  0
  3  4  1  0  0  0  0
  5  6  1  0  0  0  0
  7  8  1  0  0  0  0
  9 10  1  0  0  0  0
M  END
