
 OpenBabel11272015193D

 12  6  0  0  0  0  0  0  0  0999 V2000
  515.3162  519.8002  518.6618 F   0  0  0  0  0  0  0  0  0  0  0  0
  515.6145  519.1035  518.0093 H   0  0  0  0  0  0  0  0  0  0  0  0
  516.3906  517.6681  515.9419 F   0  0  0  0  0  0  0  0  0  0  0  0
  516.5709  518.5047  516.6142 H   0  0  0  0  0  0  0  0  0  0  0  0
  516.9054  517.1438  516.7160 F   0  0  0  0  0  0  0  0  0  0  0  0
  515.9181  517.0379  516.5981 H   0  0  0  0  0  0  0  0  0  0  0  0
  515.5852  519.7482  515.0531 F   0  0  0  0  0  0  0  0  0  0  0  0
  516.0443  519.8638  516.0329 H   0  0  0  0  0  0  0  0  0  0  0  0
  518.5043  520.3677  517.1006 F   0  0  0  0  0  0  0  0  0  0  0  0
  517.6744  519.6965  517.2980 H   0  0  0  0  0  0  0  0  0  0  0  0
  517.2087  522.9309  518.5361 F   0  0  0  0  0  0  0  0  0  0  0  0
  516.8314  522.0056  518.5617 H   0  0  0  0  0  0  0  0  0  0  0  0
  1  2  1  0  0  0  0
  3  4  1  0  0  0  0
  5  6  1  0  0  0  0
  7  8  1  0  0  0  0
  9 10  1  0  0  0  0
 11 12  1  0  0  0  0
M  END
