
 OpenBabel11272015123D

  8  4  0  0  0  0  0  0  0  0999 V2000
   20.1446   15.1517   18.9657 F   0  0  0  0  0  0  0  0  0  0  0  0
   19.3318   15.6753   19.2689 H   0  0  0  0  0  0  0  0  0  0  0  0
   16.6980   16.1668   19.1873 F   0  0  0  0  0  0  0  0  0  0  0  0
   17.5871   15.8678   18.8477 H   0  0  0  0  0  0  0  0  0  0  0  0
   17.7799   17.4637   20.5241 F   0  0  0  0  0  0  0  0  0  0  0  0
   18.1695   16.5682   20.3122 H   0  0  0  0  0  0  0  0  0  0  0  0
   16.9265   13.9972   17.6518 F   0  0  0  0  0  0  0  0  0  0  0  0
   17.8487   14.1494   18.0141 H   0  0  0  0  0  0  0  0  0  0  0  0
  1  2  1  0  0  0  0
  3  4  1  0  0  0  0
  5  6  1  0  0  0  0
  7  8  1  0  0  0  0
M  END
