
 OpenBabel12072013203D

  8  5  0  0  0  0  0  0  0  0999 V2000
   13.6380   16.5324   16.0496 F   0  0  0  0  0  0  0  0  0  0  0  0
   13.5464   15.8142   15.3568 H   0  0  0  0  0  0  0  0  0  0  0  0
   16.2432   17.0642   16.3798 H   0  0  0  0  0  0  0  0  0  0  0  0
   17.1233   17.2692   16.7316 O   0  0  0  0  0  0  0  0  0  0  0  0
   17.2193   17.0814   17.6753 H   0  0  0  0  0  0  0  0  0  0  0  0
   13.9632   14.2876   13.7945 H   0  0  0  0  0  0  0  0  0  0  0  0
   13.1646   13.9562   14.2277 O   0  0  0  0  0  0  0  0  0  0  0  0
   12.3713   14.4746   14.0353 H   0  0  0  0  0  0  0  0  0  0  0  0
  1  2  1  0  0  0  0
  3  4  1  0  0  0  0
  4  5  1  0  0  0  0
  6  7  1  0  0  0  0
  7  8  1  0  0  0  0
M  END
