
 OpenBabel11272015143D

 12  6  0  0  0  0  0  0  0  0999 V2000
  202.2801  197.6993  206.2928 F   0  0  0  0  0  0  0  0  0  0  0  0
  202.1130  196.7069  206.2574 H   0  0  0  0  0  0  0  0  0  0  0  0
  205.4866  196.0870  206.7534 F   0  0  0  0  0  0  0  0  0  0  0  0
  204.4034  196.0200  206.6538 H   0  0  0  0  0  0  0  0  0  0  0  0
  202.4843  194.0760  206.6181 F   0  0  0  0  0  0  0  0  0  0  0  0
  202.1102  194.9718  206.8609 H   0  0  0  0  0  0  0  0  0  0  0  0
  203.2442  196.3910  209.5802 F   0  0  0  0  0  0  0  0  0  0  0  0
  203.1070  196.7861  208.6713 H   0  0  0  0  0  0  0  0  0  0  0  0
  202.7745  194.1865  205.6638 F   0  0  0  0  0  0  0  0  0  0  0  0
  202.8873  195.0997  206.0584 H   0  0  0  0  0  0  0  0  0  0  0  0
  204.8853  195.3744  205.1655 F   0  0  0  0  0  0  0  0  0  0  0  0
  204.2494  196.0596  205.5212 H   0  0  0  0  0  0  0  0  0  0  0  0
  1  2  1  0  0  0  0
  3  4  1  0  0  0  0
  5  6  1  0  0  0  0
  7  8  1  0  0  0  0
  9 10  1  0  0  0  0
 11 12  1  0  0  0  0
M  END
