
 OpenBabel11272015233D

 12  6  0  0  0  0  0  0  0  0999 V2000
  715.8430  734.8981  723.6104 F   0  0  0  0  0  0  0  0  0  0  0  0
  716.4053  734.1191  723.1249 H   0  0  0  0  0  0  0  0  0  0  0  0
  718.9034  733.8998  722.0474 F   0  0  0  0  0  0  0  0  0  0  0  0
  718.1006  733.7779  722.6743 H   0  0  0  0  0  0  0  0  0  0  0  0
  716.2247  731.4655  722.5296 F   0  0  0  0  0  0  0  0  0  0  0  0
  717.0453  732.0464  722.5896 H   0  0  0  0  0  0  0  0  0  0  0  0
  718.0499  732.0466  723.4120 F   0  0  0  0  0  0  0  0  0  0  0  0
  717.3117  732.6639  723.6918 H   0  0  0  0  0  0  0  0  0  0  0  0
  716.3309  732.3938  724.1532 F   0  0  0  0  0  0  0  0  0  0  0  0
  715.6131  731.7498  723.8802 H   0  0  0  0  0  0  0  0  0  0  0  0
  713.3652  730.5580  723.0390 F   0  0  0  0  0  0  0  0  0  0  0  0
  714.2376  730.9513  723.3299 H   0  0  0  0  0  0  0  0  0  0  0  0
  1  2  1  0  0  0  0
  3  4  1  0  0  0  0
  5  6  1  0  0  0  0
  7  8  1  0  0  0  0
  9 10  1  0  0  0  0
 11 12  1  0  0  0  0
M  END
