
 OpenBabel11272015173D

 12  6  0  0  0  0  0  0  0  0999 V2000
  369.6172  369.2827  376.5732 F   0  0  0  0  0  0  0  0  0  0  0  0
  369.9084  368.4922  376.0367 H   0  0  0  0  0  0  0  0  0  0  0  0
  369.5224  369.1417  372.9291 F   0  0  0  0  0  0  0  0  0  0  0  0
  369.7438  369.3941  373.8937 H   0  0  0  0  0  0  0  0  0  0  0  0
  370.9667  370.5966  375.9610 F   0  0  0  0  0  0  0  0  0  0  0  0
  371.1034  371.4799  375.5145 H   0  0  0  0  0  0  0  0  0  0  0  0
  370.9334  368.9095  373.1791 F   0  0  0  0  0  0  0  0  0  0  0  0
  370.5492  368.8430  374.1017 H   0  0  0  0  0  0  0  0  0  0  0  0
  369.4149  366.1084  374.9296 F   0  0  0  0  0  0  0  0  0  0  0  0
  369.6157  367.1904  374.8097 H   0  0  0  0  0  0  0  0  0  0  0  0
  370.7377  372.6539  375.6885 F   0  0  0  0  0  0  0  0  0  0  0  0
  370.2451  371.8061  375.9060 H   0  0  0  0  0  0  0  0  0  0  0  0
  1  2  1  0  0  0  0
  3  4  1  0  0  0  0
  5  6  1  0  0  0  0
  7  8  1  0  0  0  0
  9 10  1  0  0  0  0
 11 12  1  0  0  0  0
M  END
