
 OpenBabel12072013203D

  7  4  0  0  0  0  0  0  0  0999 V2000
   21.0328   18.0822   21.3447 F   0  0  0  0  0  0  0  0  0  0  0  0
   20.7106   18.4531   20.4651 H   0  0  0  0  0  0  0  0  0  0  0  0
   19.8049   20.0155   18.4898 F   0  0  0  0  0  0  0  0  0  0  0  0
   19.9981   20.5371   19.3255 H   0  0  0  0  0  0  0  0  0  0  0  0
   21.7103   20.7384   20.9699 H   0  0  0  0  0  0  0  0  0  0  0  0
   20.9527   21.5226   21.0570 O   0  0  0  0  0  0  0  0  0  0  0  0
   20.2326   20.7297   21.2662 H   0  0  0  0  0  0  0  0  0  0  0  0
  1  2  1  0  0  0  0
  3  4  1  0  0  0  0
  5  6  1  0  0  0  0
  6  7  1  0  0  0  0
M  END
