
 OpenBabel11272015233D

 12  6  0  0  0  0  0  0  0  0999 V2000
  718.4688  737.6001  727.3849 F   0  0  0  0  0  0  0  0  0  0  0  0
  718.9903  737.1931  726.5984 H   0  0  0  0  0  0  0  0  0  0  0  0
  720.4111  736.3524  724.5240 F   0  0  0  0  0  0  0  0  0  0  0  0
  719.7992  736.6822  725.2545 H   0  0  0  0  0  0  0  0  0  0  0  0
  719.8060  733.4906  726.4540 F   0  0  0  0  0  0  0  0  0  0  0  0
  719.8171  734.2528  725.8083 H   0  0  0  0  0  0  0  0  0  0  0  0
  721.0863  736.1672  725.2703 F   0  0  0  0  0  0  0  0  0  0  0  0
  721.0757  737.0558  724.8014 H   0  0  0  0  0  0  0  0  0  0  0  0
  719.4950  736.2973  724.1222 F   0  0  0  0  0  0  0  0  0  0  0  0
  719.3676  735.5582  724.7944 H   0  0  0  0  0  0  0  0  0  0  0  0
  718.5128  733.9771  726.7823 F   0  0  0  0  0  0  0  0  0  0  0  0
  718.4676  734.9493  727.0049 H   0  0  0  0  0  0  0  0  0  0  0  0
  1  2  1  0  0  0  0
  3  4  1  0  0  0  0
  5  6  1  0  0  0  0
  7  8  1  0  0  0  0
  9 10  1  0  0  0  0
 11 12  1  0  0  0  0
M  END
