
 OpenBabel11272015213D

 12  6  0  0  0  0  0  0  0  0999 V2000
  615.1932  622.1906  616.8948 F   0  0  0  0  0  0  0  0  0  0  0  0
  614.2255  622.4356  616.8042 H   0  0  0  0  0  0  0  0  0  0  0  0
  612.0517  623.8717  617.4122 F   0  0  0  0  0  0  0  0  0  0  0  0
  612.9964  623.7161  617.0932 H   0  0  0  0  0  0  0  0  0  0  0  0
  615.5784  624.4864  617.1025 F   0  0  0  0  0  0  0  0  0  0  0  0
  614.7476  623.9269  617.3461 H   0  0  0  0  0  0  0  0  0  0  0  0
  612.6124  623.0719  618.7143 F   0  0  0  0  0  0  0  0  0  0  0  0
  613.0467  622.5012  618.0075 H   0  0  0  0  0  0  0  0  0  0  0  0
  613.1989  621.7282  617.3887 F   0  0  0  0  0  0  0  0  0  0  0  0
  613.9083  621.7722  618.0936 H   0  0  0  0  0  0  0  0  0  0  0  0
  613.9751  620.4410  616.5662 F   0  0  0  0  0  0  0  0  0  0  0  0
  614.8721  620.2617  616.1634 H   0  0  0  0  0  0  0  0  0  0  0  0
  1  2  1  0  0  0  0
  3  4  1  0  0  0  0
  5  6  1  0  0  0  0
  7  8  1  0  0  0  0
  9 10  1  0  0  0  0
 11 12  1  0  0  0  0
M  END
