
 OpenBabel11272015123D

 10  5  0  0  0  0  0  0  0  0999 V2000
   96.7001   87.0073   97.5511 F   0  0  0  0  0  0  0  0  0  0  0  0
   96.1488   87.3113   96.8011 H   0  0  0  0  0  0  0  0  0  0  0  0
   93.5886   85.4151   96.4550 F   0  0  0  0  0  0  0  0  0  0  0  0
   94.3911   85.8294   96.8893 H   0  0  0  0  0  0  0  0  0  0  0  0
   95.7585   88.3439   96.7717 F   0  0  0  0  0  0  0  0  0  0  0  0
   95.0128   87.6639   96.7615 H   0  0  0  0  0  0  0  0  0  0  0  0
   97.6921   86.8842   94.0284 F   0  0  0  0  0  0  0  0  0  0  0  0
   97.2721   87.1207   94.9293 H   0  0  0  0  0  0  0  0  0  0  0  0
   95.6537   88.9879   94.7351 F   0  0  0  0  0  0  0  0  0  0  0  0
   95.6409   88.2474   95.3864 H   0  0  0  0  0  0  0  0  0  0  0  0
  1  2  1  0  0  0  0
  3  4  1  0  0  0  0
  5  6  1  0  0  0  0
  7  8  1  0  0  0  0
  9 10  1  0  0  0  0
M  END
