
 OpenBabel11272015133D

 10  5  0  0  0  0  0  0  0  0999 V2000
  140.9921  134.2654  142.2629 F   0  0  0  0  0  0  0  0  0  0  0  0
  140.5804  133.3589  142.0339 H   0  0  0  0  0  0  0  0  0  0  0  0
  140.0537  131.5373  140.1215 F   0  0  0  0  0  0  0  0  0  0  0  0
  139.9295  132.3580  140.6941 H   0  0  0  0  0  0  0  0  0  0  0  0
  139.4677  133.9867  142.7739 F   0  0  0  0  0  0  0  0  0  0  0  0
  140.1584  133.3110  143.0300 H   0  0  0  0  0  0  0  0  0  0  0  0
  141.9323  131.4386  143.7210 F   0  0  0  0  0  0  0  0  0  0  0  0
  141.3935  131.9049  143.0196 H   0  0  0  0  0  0  0  0  0  0  0  0
  138.8357  131.3187  142.1088 F   0  0  0  0  0  0  0  0  0  0  0  0
  138.7959  130.6655  142.8654 H   0  0  0  0  0  0  0  0  0  0  0  0
  1  2  1  0  0  0  0
  3  4  1  0  0  0  0
  5  6  1  0  0  0  0
  7  8  1  0  0  0  0
  9 10  1  0  0  0  0
M  END
