
 OpenBabel11272015133D

 10  5  0  0  0  0  0  0  0  0999 V2000
  194.0245  181.6377  198.9483 F   0  0  0  0  0  0  0  0  0  0  0  0
  194.0020  182.6191  198.5463 H   0  0  0  0  0  0  0  0  0  0  0  0
  194.2561  185.1688  199.9322 F   0  0  0  0  0  0  0  0  0  0  0  0
  194.1044  184.2228  199.6398 H   0  0  0  0  0  0  0  0  0  0  0  0
  195.0778  184.9283  197.7140 F   0  0  0  0  0  0  0  0  0  0  0  0
  195.8847  184.6551  198.2369 H   0  0  0  0  0  0  0  0  0  0  0  0
  194.6053  183.7253  196.1181 F   0  0  0  0  0  0  0  0  0  0  0  0
  194.2408  183.6546  197.1119 H   0  0  0  0  0  0  0  0  0  0  0  0
  193.2085  185.1550  199.1313 F   0  0  0  0  0  0  0  0  0  0  0  0
  193.7475  185.0411  198.2959 H   0  0  0  0  0  0  0  0  0  0  0  0
  1  2  1  0  0  0  0
  3  4  1  0  0  0  0
  5  6  1  0  0  0  0
  7  8  1  0  0  0  0
  9 10  1  0  0  0  0
M  END
