
 OpenBabel11272015163D

 12  6  0  0  0  0  0  0  0  0999 V2000
  326.6260  328.8245  333.0425 F   0  0  0  0  0  0  0  0  0  0  0  0
  327.1405  329.0031  332.1097 H   0  0  0  0  0  0  0  0  0  0  0  0
  328.8269  326.0816  333.8967 F   0  0  0  0  0  0  0  0  0  0  0  0
  328.4955  326.8442  333.1958 H   0  0  0  0  0  0  0  0  0  0  0  0
  327.1455  330.7616  330.0271 F   0  0  0  0  0  0  0  0  0  0  0  0
  327.7891  329.9935  330.0529 H   0  0  0  0  0  0  0  0  0  0  0  0
  329.3323  329.1973  335.4830 F   0  0  0  0  0  0  0  0  0  0  0  0
  328.4996  329.1531  334.9293 H   0  0  0  0  0  0  0  0  0  0  0  0
  329.1157  327.7582  330.7027 F   0  0  0  0  0  0  0  0  0  0  0  0
  328.6061  328.3757  331.2945 H   0  0  0  0  0  0  0  0  0  0  0  0
  328.6743  328.2751  336.0316 F   0  0  0  0  0  0  0  0  0  0  0  0
  328.1075  328.2754  335.2045 H   0  0  0  0  0  0  0  0  0  0  0  0
  1  2  1  0  0  0  0
  3  4  1  0  0  0  0
  5  6  1  0  0  0  0
  7  8  1  0  0  0  0
  9 10  1  0  0  0  0
 11 12  1  0  0  0  0
M  END
