
 OpenBabel12072013203D

  7  4  0  0  0  0  0  0  0  0999 V2000
    7.0973    6.2516    7.0039 F   0  0  0  0  0  0  0  0  0  0  0  0
    6.6863    5.8702    6.1737 H   0  0  0  0  0  0  0  0  0  0  0  0
    5.9027    5.3494    3.6640 F   0  0  0  0  0  0  0  0  0  0  0  0
    5.2193    4.9514    3.0538 H   0  0  0  0  0  0  0  0  0  0  0  0
    9.3447    7.4746    7.8010 H   0  0  0  0  0  0  0  0  0  0  0  0
   10.2508    7.8339    7.8456 O   0  0  0  0  0  0  0  0  0  0  0  0
   10.8038    7.5776    7.0932 H   0  0  0  0  0  0  0  0  0  0  0  0
  1  2  1  0  0  0  0
  3  4  1  0  0  0  0
  5  6  1  0  0  0  0
  6  7  1  0  0  0  0
M  END
