
 OpenBabel11272015133D

 10  5  0  0  0  0  0  0  0  0999 V2000
  146.0462  140.0242  146.2659 F   0  0  0  0  0  0  0  0  0  0  0  0
  145.3988  139.4019  146.7795 H   0  0  0  0  0  0  0  0  0  0  0  0
  145.1941  136.5481  145.7315 F   0  0  0  0  0  0  0  0  0  0  0  0
  145.5348  137.3449  146.3891 H   0  0  0  0  0  0  0  0  0  0  0  0
  143.0338  138.6063  147.7770 F   0  0  0  0  0  0  0  0  0  0  0  0
  143.9683  138.0655  147.6399 H   0  0  0  0  0  0  0  0  0  0  0  0
  146.2889  137.6102  148.9999 F   0  0  0  0  0  0  0  0  0  0  0  0
  146.2124  138.3977  148.3894 H   0  0  0  0  0  0  0  0  0  0  0  0
  144.6170  137.0922  147.9115 F   0  0  0  0  0  0  0  0  0  0  0  0
  143.9307  136.7211  147.2845 H   0  0  0  0  0  0  0  0  0  0  0  0
  1  2  1  0  0  0  0
  3  4  1  0  0  0  0
  5  6  1  0  0  0  0
  7  8  1  0  0  0  0
  9 10  1  0  0  0  0
M  END
