
 OpenBabel11272015223D

 12  6  0  0  0  0  0  0  0  0999 V2000
  672.7241  688.0829  679.8119 F   0  0  0  0  0  0  0  0  0  0  0  0
  673.4224  687.7774  679.1633 H   0  0  0  0  0  0  0  0  0  0  0  0
  674.6201  690.9373  680.9787 F   0  0  0  0  0  0  0  0  0  0  0  0
  674.5720  689.8870  680.7005 H   0  0  0  0  0  0  0  0  0  0  0  0
  675.0945  687.3532  677.1215 F   0  0  0  0  0  0  0  0  0  0  0  0
  675.5116  687.3229  678.0124 H   0  0  0  0  0  0  0  0  0  0  0  0
  671.5326  685.2059  677.8666 F   0  0  0  0  0  0  0  0  0  0  0  0
  671.8900  685.9942  678.3636 H   0  0  0  0  0  0  0  0  0  0  0  0
  676.2319  687.7291  680.5127 F   0  0  0  0  0  0  0  0  0  0  0  0
  675.4264  687.7065  679.7831 H   0  0  0  0  0  0  0  0  0  0  0  0
  674.8698  686.3815  677.4456 F   0  0  0  0  0  0  0  0  0  0  0  0
  674.7213  686.8745  678.4050 H   0  0  0  0  0  0  0  0  0  0  0  0
  1  2  1  0  0  0  0
  3  4  1  0  0  0  0
  5  6  1  0  0  0  0
  7  8  1  0  0  0  0
  9 10  1  0  0  0  0
 11 12  1  0  0  0  0
M  END
