
 OpenBabel11272015243D

 12  6  0  0  0  0  0  0  0  0999 V2000
  750.4537  765.9529  756.2363 F   0  0  0  0  0  0  0  0  0  0  0  0
  751.2601  766.5414  756.4167 H   0  0  0  0  0  0  0  0  0  0  0  0
  752.5920  765.5350  759.1225 F   0  0  0  0  0  0  0  0  0  0  0  0
  752.4274  765.9365  758.1232 H   0  0  0  0  0  0  0  0  0  0  0  0
  753.7870  767.4267  756.2807 F   0  0  0  0  0  0  0  0  0  0  0  0
  754.2176  766.5280  756.3712 H   0  0  0  0  0  0  0  0  0  0  0  0
  753.5747  765.9373  758.0681 F   0  0  0  0  0  0  0  0  0  0  0  0
  752.8860  766.4219  757.3801 H   0  0  0  0  0  0  0  0  0  0  0  0
  752.6611  768.7633  755.9974 F   0  0  0  0  0  0  0  0  0  0  0  0
  751.8960  768.2306  756.5529 H   0  0  0  0  0  0  0  0  0  0  0  0
  750.4326  768.5199  758.8394 F   0  0  0  0  0  0  0  0  0  0  0  0
  750.2552  767.8442  758.1225 H   0  0  0  0  0  0  0  0  0  0  0  0
  1  2  1  0  0  0  0
  3  4  1  0  0  0  0
  5  6  1  0  0  0  0
  7  8  1  0  0  0  0
  9 10  1  0  0  0  0
 11 12  1  0  0  0  0
M  END
