
 OpenBabel11272015123D

 10  5  0  0  0  0  0  0  0  0999 V2000
  109.3602  102.1463  109.5839 F   0  0  0  0  0  0  0  0  0  0  0  0
  109.1184  101.1098  109.4704 H   0  0  0  0  0  0  0  0  0  0  0  0
  107.4475  101.4216  106.5488 F   0  0  0  0  0  0  0  0  0  0  0  0
  108.0430  101.4438  107.3589 H   0  0  0  0  0  0  0  0  0  0  0  0
  110.1347   98.6115  109.7578 F   0  0  0  0  0  0  0  0  0  0  0  0
  110.6534   97.7905  109.9942 H   0  0  0  0  0  0  0  0  0  0  0  0
  106.7871   99.7493  109.0067 F   0  0  0  0  0  0  0  0  0  0  0  0
  107.8126   99.9210  109.2117 H   0  0  0  0  0  0  0  0  0  0  0  0
  109.3859   98.7748  108.1720 F   0  0  0  0  0  0  0  0  0  0  0  0
  109.0189   99.6075  107.7400 H   0  0  0  0  0  0  0  0  0  0  0  0
  1  2  1  0  0  0  0
  3  4  1  0  0  0  0
  5  6  1  0  0  0  0
  7  8  1  0  0  0  0
  9 10  1  0  0  0  0
M  END
