
 OpenBabel11272015183D

 12  6  0  0  0  0  0  0  0  0999 V2000
  460.1191  457.4009  461.5627 F   0  0  0  0  0  0  0  0  0  0  0  0
  460.2434  456.7680  460.7852 H   0  0  0  0  0  0  0  0  0  0  0  0
  460.4420  458.2246  458.0066 F   0  0  0  0  0  0  0  0  0  0  0  0
  460.5279  457.9845  458.9778 H   0  0  0  0  0  0  0  0  0  0  0  0
  462.4463  455.6426  461.0413 F   0  0  0  0  0  0  0  0  0  0  0  0
  461.7307  455.6851  460.3441 H   0  0  0  0  0  0  0  0  0  0  0  0
  459.9117  455.6225  458.3857 F   0  0  0  0  0  0  0  0  0  0  0  0
  459.1791  456.0188  457.8343 H   0  0  0  0  0  0  0  0  0  0  0  0
  461.0741  454.8009  459.1658 F   0  0  0  0  0  0  0  0  0  0  0  0
  460.7922  455.7181  458.8728 H   0  0  0  0  0  0  0  0  0  0  0  0
  457.3293  455.2007  460.8844 F   0  0  0  0  0  0  0  0  0  0  0  0
  458.2647  455.6641  460.5645 H   0  0  0  0  0  0  0  0  0  0  0  0
  1  2  1  0  0  0  0
  3  4  1  0  0  0  0
  5  6  1  0  0  0  0
  7  8  1  0  0  0  0
  9 10  1  0  0  0  0
 11 12  1  0  0  0  0
M  END
